Flow Title=2009 Flood Event BC Mid Day
Program Version=5.03
Use Restart= 0 
Restart Filename=YoloBypass_2016.p09.05MAR2009 2400.rst
Initial Flow Loc=American        ,A               ,22.195  ,21.75
Initial Flow Loc=American        ,A               ,0.191   ,11.072
Initial Flow Loc=Barker Slough   ,Small A         ,2687.425,0.19
Initial Flow Loc=Cache Slough    ,US to Hass      ,2275.979,1
Initial Flow Loc=Cache Slough    ,Hass to 2D      ,19883.95,2
Initial Flow Loc=CalhounCut      ,AA              ,2400.371,4.32
Initial Flow Loc=DeepWaterShipCha,A               ,34556.03,1
Initial Flow Loc=DeltaCross      ,DCC             ,1071.35 ,1
Initial Flow Loc=Elk Slough      ,To Sutter       ,15304.38,1
Initial Flow Loc=FeatherRiver    ,A               ,46191.73,65.1
Initial Flow Loc=FeatherRiver    ,A               ,12736   ,52.22
Initial Flow Loc=Georgianna      ,Georg to Sac    ,1718.89 ,1
Initial Flow Loc=HassSlough      ,To Cache        ,4682.563,1
Initial Flow Loc=Lindsey         ,Barker to 2D    ,9850.279,11.185
Initial Flow Loc=Miner Slough    ,Sutter to 2D    ,10647.88,82.3375
Initial Flow Loc=NCC             ,A               ,3509.071,13.564
Initial Flow Loc=Sacramento      ,Feather to NCC  ,1442.33 ,322.68
Initial Flow Loc=Sacramento      ,NCC to American ,106947.8,341.8
Initial Flow Loc=Sacramento      ,NCC to American ,80400   ,357.1525
Initial Flow Loc=Sacramento      ,Amer to Sutt Sl ,74027.38,372.505
Initial Flow Loc=Sacramento      ,Sutt to Steam   ,31893.07,450.415
Initial Flow Loc=Sacramento      ,Steam to DCC    ,29339.4 ,254.52
Initial Flow Loc=Sacramento      ,DCC to Georg    ,20776.3 ,318.4895
Initial Flow Loc=Sacramento      ,Georg to 2D     ,19783.05,347.3295
Initial Flow Loc=Sacramento      ,Wilkins - A     ,60311.51,40.9325
Initial Flow Loc=Steamboat Slough,Sac to Sutter   ,18671.58,203.56
Initial Flow Loc=Steamboat Slough,Sutter to 2D    ,11481.18,915.46
Initial Flow Loc=Sutter Slough   ,Sac to Elk      ,10711.84,574.74
Initial Flow Loc=Sutter Slough   ,Elk to Miner    ,9830.021,516.38
Initial Flow Loc=Sutter Slough   ,Miner to Steam  ,3768.972,303.9
Initial Storage Elev=Sutter Bypass   ,4.7
Initial Storage Elev=Yolo Bypass     ,0.73
Boundary Location=NCC             ,A               ,3509.071,        ,                ,                ,                ,                
Interval=1HOUR
Flow Hydrograph= 0 
DSS File=LT_BCs_daily_hourly_mean_flows_m_t_shift.dss
DSS Path=/NATOMAS CROSS CANAL/NCC/FLOW MID DAY/01JAN1996/1DAY/ESTIMATED/
Use DSS=True
Use Fixed Start Time=False
Fixed Start Date/Time=,
Is Critical Boundary=False
Critical Boundary Flow=
Boundary Location=Sacramento      ,Wilkins - A     ,60311.51,        ,                ,                ,                ,                
Interval=1HOUR
Flow Hydrograph= 0 
DSS File=LT_BCs_daily_hourly_mean_flows_m_t_shift.dss
DSS Path=/SACRAMENTO R BL WILKINS SLOUGH/GRIMES CA/FLOW MID DAY/01JAN1996/1DAY/USGS/
Use DSS=True
Use Fixed Start Time=False
Fixed Start Date/Time=,
Is Critical Boundary=False
Critical Boundary Flow=
Boundary Location=Sacramento      ,Wilkins - A     ,15797.7*,        ,                ,                ,                ,                
Interval=1HOUR
Lateral Inflow Hydrograph= 0 
DSS File=LT_BCs_daily_hourly_mean_flows_m_t_shift.dss
DSS Path=/KNIGHTS LANDING OUTFALL GATES/4_KLOG/FLOW MID DAY/01JAN1996/1DAY/DWR_WDL + ESTIMATED/
Use DSS=True
Use Fixed Start Time=False
Fixed Start Date/Time=,
Is Critical Boundary=False
Critical Boundary Flow=
Boundary Location=Barker Slough   ,Small A         ,2687.425,        ,                ,                ,                ,                
Interval=1HOUR
Flow Hydrograph= 0 
DSS File=LT_BCs_daily_hourly_mean_flows_m_t_shift.dss
DSS Path=/CAMPBELL LAKE/CAMP/FLOW MID DAY/01JAN1996/1DAY/ESTIMATED/
Use DSS=True
Use Fixed Start Time=False
Fixed Start Date/Time=,
Is Critical Boundary=False
Critical Boundary Flow=
Boundary Location=Barker Slough   ,Small A         ,2574.70*,        ,                ,                ,                ,                
Interval=1DAY
Lateral Inflow Hydrograph= 1393 
       1     .63     .25    -.13     -.5    -.88   -1.25   -1.25   -1.25   -1.25
   -1.25   -1.25   -1.25   -1.25   -1.25   -1.25   -1.25   -1.25   -1.25   -1.25
   -1.25   -1.25   -1.25   -1.25   -1.25   -1.61   -1.61   -1.61   -1.61   -1.61
   -1.61   -1.61   -1.61   -1.61   -1.61   -1.61   -1.61   -1.61   -1.61   -1.61
   -1.61   -1.61   -1.61   -1.61   -1.61   -1.61   -1.61   -1.61   -1.61    -.62
    -.62    -.62    -.62    -.62    -.62    -.62    -.62    -.62    -.62    -.62
    -.62    -.62    -.62    -.62    -.62    -.62    -.62    -.62    -.62    -.62
    -.62    -.62    -.62    -1.5    -1.5    -1.5    -1.5    -1.5    -1.5    -1.5
    -1.5    -1.5    -1.5    -1.5    -1.5    -1.5    -1.5    -1.5    -1.5    -1.5
    -1.5    -1.5    -1.5    -1.5    -1.5    -1.5    -1.5    -.91    -.91    -.91
    -.91    -.91    -.91    -.91    -.91    -.91    -.91    -.91    -.91    -.91
    -.91    -.91    -.91    -.91    -.91    -.91    -.91    -.91    -.91    -.91
    -.91   -1.61   -1.61   -1.61   -1.61   -1.61   -1.61   -1.61   -1.61   -1.61
   -1.61   -1.61   -1.61   -1.61   -1.61   -1.61   -1.61   -1.61   -1.61   -1.61
   -1.61   -1.61   -1.61   -1.61   -1.61   -1.25   -1.25   -1.25   -1.25   -1.25
   -1.25   -1.25   -1.25   -1.25   -1.25   -1.25   -1.25   -1.25   -1.25   -1.25
   -1.25   -1.25   -1.25   -1.25   -1.25   -1.25   -1.25   -1.25   -1.25   -1.13
   -1.13   -1.13   -1.13   -1.13   -1.13   -1.13   -1.13   -1.13   -1.13   -1.13
   -1.13   -1.13   -1.13   -1.13   -1.13   -1.13   -1.13   -1.13   -1.13   -1.13
   -1.13   -1.13   -1.13   -1.19   -1.19   -1.19   -1.19   -1.19   -1.19   -1.19
   -1.19   -1.19   -1.19   -1.19   -1.19   -1.19   -1.19   -1.19   -1.19   -1.19
   -1.19   -1.19   -1.19   -1.19   -1.19   -1.19   -1.19   -1.33   -1.33   -1.33
   -1.33   -1.33   -1.33   -1.33   -1.33   -1.33   -1.33   -1.33   -1.33   -1.33
   -1.33   -1.33   -1.33   -1.33   -1.33   -1.33   -1.33   -1.33   -1.33   -1.33
   -1.33   -1.42   -1.42   -1.42   -1.42   -1.42   -1.42   -1.42   -1.42   -1.42
   -1.42   -1.42   -1.42   -1.42   -1.42   -1.42   -1.42   -1.42   -1.42   -1.42
   -1.42   -1.42   -1.42   -1.42   -1.42   -1.36   -1.36   -1.36   -1.36   -1.36
   -1.36   -1.36   -1.36   -1.36   -1.36   -1.36   -1.36   -1.36   -1.36   -1.36
   -1.36   -1.36   -1.36   -1.36   -1.36   -1.36   -1.36   -1.36   -1.36   -1.61
   -1.61   -1.61   -1.61   -1.61   -1.61   -1.61   -1.61   -1.61   -1.61   -1.61
   -1.61   -1.61   -1.61   -1.61   -1.61   -1.61   -1.61   -1.61   -1.61   -1.61
   -1.61   -1.61   -1.61   -1.76   -1.76   -1.76   -1.76   -1.76   -1.76   -1.76
   -1.76   -1.76   -1.76   -1.76   -1.76   -1.76   -1.76   -1.76   -1.76   -1.76
   -1.76   -1.76   -1.76   -1.76   -1.76   -1.76   -1.76   -1.87   -1.87   -1.87
   -1.87   -1.87   -1.87   -1.87   -1.87   -1.87   -1.87   -1.87   -1.87   -1.87
   -1.87   -1.87   -1.87   -1.87   -1.87   -1.87   -1.87   -1.87   -1.87   -1.87
   -1.87   -1.98   -1.98   -1.98   -1.98   -1.98   -1.98   -1.98   -1.98   -1.98
   -1.98   -1.98   -1.98   -1.98   -1.98   -1.98   -1.98   -1.98   -1.98   -1.98
   -1.98   -1.98   -1.98   -1.98   -1.98   -1.64   -1.64   -1.64   -1.64   -1.64
   -1.64   -1.64   -1.64   -1.64   -1.64   -1.64   -1.64   -1.64   -1.64   -1.64
   -1.64   -1.64   -1.64   -1.64   -1.64   -1.64   -1.64   -1.64   -1.64   -1.16
   -1.16   -1.16   -1.16   -1.16   -1.16   -1.16   -1.16   -1.16   -1.16   -1.16
   -1.16   -1.16   -1.16   -1.16   -1.16   -1.16   -1.16   -1.16   -1.16   -1.16
   -1.16   -1.16   -1.16    -.62    -.62    -.62    -.62    -.62    -.62    -.62
    -.62    -.62    -.62    -.62    -.62    -.62    -.62    -.62    -.62    -.62
    -.62    -.62    -.62    -.62    -.62    -.62    -.62    -.23    -.23    -.23
    -.23    -.23    -.23    -.23    -.23    -.23    -.23    -.23    -.23    -.23
    -.23    -.23    -.23    -.23    -.23    -.23    -.23    -.23    -.23    -.23
    -.23    -.23    -.23    -.23    -.23    -.23    -.23    -.23    -.23    -.23
    -.23    -.23    -.23    -.23    -.23    -.23    -.23    -.23    -.23    -.23
    -.23    -.23    -.23    -.23    -.23    -.23    -.23    -.23    -.23    -.23
    -.23    -.23    -.23    -.23    -.23    -.23    -.23    -.23    -.23    -.23
    -.23    -.23    -.23    -.23    -.23    -.23    -.23    -.23    -.23     -.2
     -.2     -.2     -.2     -.2     -.2     -.2     -.2     -.2     -.2     -.2
     -.2     -.2     -.2     -.2     -.2     -.2     -.2     -.2     -.2     -.2
     -.2     -.2     -.2    -.14    -.14    -.14    -.14    -.14    -.14    -.14
    -.14    -.14    -.14    -.14    -.14    -.14    -.14    -.14    -.14    -.14
    -.14    -.14    -.14    -.14    -.14    -.14    -.14    -.25    -.25    -.25
    -.25    -.25    -.25    -.25    -.25    -.25    -.25    -.25    -.25    -.25
    -.25    -.25    -.25    -.25    -.25    -.25    -.25    -.25    -.25    -.25
    -.25    -.08    -.08    -.08    -.08    -.08    -.08    -.08    -.08    -.08
    -.08    -.08    -.08    -.08    -.08    -.08    -.08    -.08    -.08    -.08
    -.08    -.08    -.08    -.08    -.08    -.06    -.06    -.06    -.06    -.06
    -.06    -.06    -.06    -.06    -.06    -.06    -.06    -.06    -.06    -.06
    -.06    -.06    -.06    -.06    -.06    -.06    -.06    -.06    -.06       0
       0       0       0       0       0       0       0       0       0       0
       0       0       0       0       0       0       0       0       0       0
       0       0       0       0       0       0       0       0       0       0
       0       0       0       0       0       0       0       0       0       0
       0       0       0       0       0       0       0       0       0       0
       0       0       0       0       0       0       0       0       0       0
       0       0       0       0       0       0       0       0       0       0
       0       0       0       0       0       0       0       0       0       0
       0       0       0       0       0       0       0       0       0       0
       0       0       0       0       0       0       0       0       0       0
       0       0       0       0       0       0       0       0       0       0
       0       0       0       0       0       0       0       0       0       0
       0       0       0       0       0       0       0       0       0       0
       0       0       0       0       0       0       0       0       0       0
       0       0       0       0       0       0       0       0       0       0
       0       0       0       0       0       0       0       0       0       0
       0       0       0       0       0       0       0       0       0       0
       0       0       0       0       0       0       0       0       0       0
       0       0       0       0       0       0       0       0       0       0
       0       0       0       0       0       0       0       0       0       0
       0       0       0       0       0       0       0       0       0       0
       0       0       0       0       0       0       0       0       0       0
       0       0       0       0       0       0       0       0       0       0
       0       0       0       0       0       0       0       0       0       0
       0       0       0       0       0       0       0       0       0       0
       0       0       0       0       0       0       0       0       0       0
       0       0       0       0       0       0       0       0       0       0
       0       0       0       0       0       0       0       0       0       0
       0       0       0       0       0       0       0       0       0       0
       0       0       0       0       0       0       0       0       0       0
       0       0       0       0       0       0       0       0       0       0
       0       0       0       0       0       0       0       0       0       0
       0       0       0       0       0       0       0       0       0       0
       0       0       0       0       0       0       0       0       0       0
       0       0       0       0       0       0       0       0       0       0
       0       0       0       0       0       0       0       0       0       0
       0       0       0       0       0       0       0       0       0       0
       0       0       0       0       0       0       0       0       0       0
       0       0       0    -.42    -.42    -.42    -.42    -.42    -.42    -.42
    -.42    -.42    -.42    -.42    -.42    -.42    -.42    -.42    -.42    -.42
    -.42    -.42    -.42    -.42    -.42    -.42    -.42    -.14    -.14    -.14
    -.14    -.14    -.14    -.14    -.14    -.14    -.14    -.14    -.14    -.14
    -.14    -.14    -.14    -.14    -.14    -.14    -.14    -.14    -.14    -.14
    -.14    -.08    -.08    -.08    -.08    -.08    -.08    -.08    -.08    -.08
    -.08    -.08    -.08    -.08    -.08    -.08    -.08    -.08    -.08    -.08
    -.08    -.08    -.08    -.08    -.08       0       0       0       0       0
       0       0       0       0       0       0       0       0       0       0
       0       0       0       0       0       0       0       0       0    -.11
    -.11    -.11    -.11    -.11    -.11    -.11    -.11    -.11    -.11    -.11
    -.11    -.11    -.11    -.11    -.11    -.11    -.11    -.11    -.11    -.11
    -.11    -.11    -.11    -.03    -.03    -.03    -.03    -.03    -.03    -.03
    -.03    -.03    -.03    -.03    -.03    -.03    -.03    -.03    -.03    -.03
    -.03    -.03    -.03    -.03    -.03    -.03    -.03    -.11    -.11    -.11
    -.11    -.11    -.11    -.11    -.11    -.11    -.11    -.11    -.11    -.11
    -.11    -.11    -.11    -.11    -.11    -.11    -.11    -.11    -.11    -.11
    -.11    -.06    -.06    -.06    -.06    -.06    -.06    -.06    -.06    -.06
    -.06    -.06    -.06    -.06    -.06    -.06    -.06    -.06    -.06    -.06
    -.06    -.06    -.06    -.06    -.06    -.08    -.08    -.08    -.08    -.08
    -.08    -.08    -.08    -.08    -.08    -.08    -.08    -.08    -.08    -.08
    -.08    -.08    -.08    -.08    -.08    -.08    -.08    -.08    -.08    -.03
    -.03    -.03    -.03    -.03    -.03    -.03    -.03    -.03    -.03    -.03
    -.03    -.03    -.03    -.03    -.03    -.03    -.03    -.03    -.03    -.03
    -.03    -.03    -.03    -.08    -.08    -.08    -.08    -.08    -.08    -.08
    -.08    -.08    -.08    -.08    -.08    -.08    -.08    -.08    -.08    -.08
    -.08    -.08    -.08    -.08    -.08    -.08    -.08    -.03    -.03    -.03
    -.03    -.03    -.03    -.03    -.03    -.03    -.03    -.03    -.03    -.03
    -.03    -.03    -.03    -.03    -.03    -.03    -.03    -.03    -.03    -.03
    -.03       0       0       0       0       0       0       0       0       0
       0       0       0       0       0       0       0       0       0       0
       0       0       0       0       0       0       0       0       0       0
       0       0       0       0       0       0       0       0       0       0
       0       0       0       0       0       0       0       0       0    -.14
    -.14    -.14    -.14    -.14    -.14    -.14    -.14    -.14    -.14    -.14
    -.14    -.14    -.14    -.14    -.14    -.14    -.14    -.14    -.14    -.14
    -.14    -.14    -.14
DSS File=LT_BCs_daily_hourly_mean_flows_m.dss
DSS Path=/NORTHBAY AQUEDUCT (EXPORTS)/3_NBAQ/FLOW/01NOV1996/1HOUR/DWR_DAYFLOW/
Use DSS=False
Use Fixed Start Time=False
Fixed Start Date/Time=,
Is Critical Boundary=False
Critical Boundary Flow=
Boundary Location=American        ,A               ,1.893   ,        ,                ,                ,                ,                
Interval=1HOUR
Lateral Inflow Hydrograph= 0 
DSS File=LT_BCs_daily_hourly_mean_flows_m_t_shift.dss
DSS Path=/STEELHEAD CREEK/SHC/FLOW MID DAY/01JAN1996/1DAY/GAUGED + ESTIMATED/
Use DSS=True
Use Fixed Start Time=False
Fixed Start Date/Time=,
Is Critical Boundary=False
Critical Boundary Flow=
Boundary Location=Sacramento      ,NCC to American ,80400   ,        ,                ,                ,                ,                
Elev Controlled Gate=Gates 1-6   ,,,0.02032,0.00508,1.829,0,0, 1 
Elev Controlled Gate Ref=8.382,7.52,Sacramento      ,Amer to Sutt Sl ,73137.26,                
Elev Controlled Gate Stage Diff=,,                ,                ,        ,                ,                ,                ,        ,                
Elev Controlled Gate=Gates 7-13  ,,,0.02032,0.00508,1.829,0,0, 1 
Elev Controlled Gate Ref=8.447,7.534,Sacramento      ,Amer to Sutt Sl ,73137.26,                
Elev Controlled Gate Stage Diff=,,                ,                ,        ,                ,                ,                ,        ,                
Elev Controlled Gate=Gates 14-20 ,,,0.02032,0.00508,1.829,0,0, 1 
Elev Controlled Gate Ref=8.516,7.549,Sacramento      ,Amer to Sutt Sl ,73137.26,                
Elev Controlled Gate Stage Diff=,,                ,                ,        ,                ,                ,                ,        ,                
Elev Controlled Gate=Gates 21-27 ,,,0.02032,0.00508,1.829,0,0, 1 
Elev Controlled Gate Ref=8.578,7.563,Sacramento      ,Amer to Sutt Sl ,73137.26,                
Elev Controlled Gate Stage Diff=,,                ,                ,        ,                ,                ,                ,        ,                
Elev Controlled Gate=Gates 28-34 ,,,0.02032,0.00508,1.829,0,0, 1 
Elev Controlled Gate Ref=8.643,7.577,Sacramento      ,Amer to Sutt Sl ,73137.26,                
Elev Controlled Gate Stage Diff=,,                ,                ,        ,                ,                ,                ,        ,                
Elev Controlled Gate=Gates 35-41 ,,,0.02032,0.00508,1.829,0,0, 1 
Elev Controlled Gate Ref=8.709,7.591,Sacramento      ,Amer to Sutt Sl ,73137.26,                
Elev Controlled Gate Stage Diff=,,                ,                ,        ,                ,                ,                ,        ,                
Elev Controlled Gate=Gates 42-48 ,,,0.02032,0.00508,1.829,0,0, 1 
Elev Controlled Gate Ref=8.839,7.62,Sacramento      ,Amer to Sutt Sl ,73137.26,                
Elev Controlled Gate Stage Diff=,,                ,                ,        ,                ,                ,                ,        ,                
Boundary Location=Elk Slough      ,To Sutter       ,15304.38,        ,                ,                ,                ,                
Interval=1YEAR
Flow Hydrograph= 2 
       1       1
DSS Path=
Use DSS=False
Use Fixed Start Time=False
Fixed Start Date/Time=,
Is Critical Boundary=False
Critical Boundary Flow=
Boundary Location=CalhounCut      ,AA              ,2400.371,        ,                ,                ,                ,                
Interval=1HOUR
Flow Hydrograph= 0 
DSS File=LT_BCs_daily_hourly_mean_flows_m_t_shift.dss
DSS Path=/CALHOUN CUT/CCH/FLOW MID DAY/01JAN1996/1DAY/ESTIMATED/
Use DSS=True
Use Fixed Start Time=False
Fixed Start Date/Time=,
Is Critical Boundary=False
Critical Boundary Flow=
Boundary Location=HassSlough      ,To Cache        ,4682.563,        ,                ,                ,                ,                
Interval=1YEAR
Flow Hydrograph= 2 
       1       1
DSS Path=
Use DSS=False
Use Fixed Start Time=False
Fixed Start Date/Time=,
Is Critical Boundary=False
Critical Boundary Flow=
Boundary Location=HassSlough      ,To Cache        ,3475.33*,        ,                ,                ,                ,                
Interval=1DAY
Lateral Inflow Hydrograph= 0 
DSS File=LT_BCs_daily_hourly_mean_flows_m_t_shift.dss
DSS Path=/HAAS SLOUGH/HAAS/FLOW MID DAY/01JAN1996/1DAY/ESTIMATED/
Use DSS=True
Use Fixed Start Time=False
Fixed Start Date/Time=,
Is Critical Boundary=False
Critical Boundary Flow=
Boundary Location=American        ,A               ,22.195  ,        ,                ,                ,                ,                
Interval=1HOUR
Flow Hydrograph= 0 
DSS File=LT_BCs_daily_hourly_mean_flows_m_t_shift.dss
DSS Path=/AMERICAN R/FAIR OAKS CA/FLOW MID DAY/01JAN2009/1DAY/USGS/
Use DSS=True
Use Fixed Start Time=False
Fixed Start Date/Time=,
Is Critical Boundary=False
Critical Boundary Flow=
Boundary Location=DeltaCross      ,DCC             ,1071.35 ,        ,                ,                ,                ,                
Interval=1YEAR
Flow Hydrograph= 2 
       0       0
DSS Path=
Use DSS=False
Use Fixed Start Time=False
Fixed Start Date/Time=,
Is Critical Boundary=False
Critical Boundary Flow=
Boundary Location=Georgianna      ,Georg to Sac    ,1718.89 ,        ,                ,                ,                ,                
Interval=1HOUR
Flow Hydrograph= 5569 
      -1    12.4   25.81   39.21   52.62   66.02   67.72   69.05   70.21   71.97
   73.76    76.1   78.49   80.92   83.56   86.84   89.05   91.68   94.08   96.58
   98.16   99.67  100.42  101.33  101.67  100.86   99.91   99.72   98.98   97.85
   96.86   95.73   94.01   91.26   87.83   83.72   79.44   74.14   68.36   63.47
    59.1   55.25   53.24   52.21   52.38   53.28   54.07   55.25   56.82   58.12
   59.18   60.61   62.05   63.92   66.06   67.98   69.32    70.5   71.26   72.33
   73.03    73.9   74.69   75.39    76.5   78.05   79.74   81.65   83.51   85.11
   86.98   88.18   88.96   89.05   88.51   87.92   87.03   86.03   84.95   83.36
   81.92   80.21   77.51   74.53   70.78   67.18   63.41   59.13   55.23   52.01
   49.49   48.18   47.17    47.1   47.47   48.42   49.22    50.2   51.12   52.16
   53.19   54.49   55.92    57.6   59.83   61.54   63.71   65.55   67.92   70.36
    73.2    75.8   78.63   80.89   83.63   86.05   88.75   91.32   92.88   94.66
   96.13   96.62   97.09   96.42   95.38   94.47   92.91   91.37   89.81   88.19
   86.83   85.31    83.2   80.94   77.86   74.34   69.23   63.37    57.9   53.77
   50.47   48.51   48.02   48.94   51.12   52.42   53.56   54.75   56.29   57.64
   59.04   60.44   62.54   64.58   66.27   67.59   68.84   69.96   70.55   71.61
   72.35    72.9    73.6   74.37   74.99   76.39   77.37   78.63   80.56   81.88
   83.77    85.6   86.72   87.47   88.36   88.13   87.84   86.52    85.6   85.15
   84.35   83.46   82.88   82.01   80.91   78.87   76.05   73.09   69.27   64.97
   60.59   56.19    52.6   49.55    47.3   45.95   45.25   45.74    46.5    47.2
   48.04   48.79   49.97   51.29   52.62   54.51   56.73   59.68   63.24   66.18
   68.92   70.67   72.36    74.4   76.18   77.31   78.93   80.38   81.98   83.86
   85.01   85.73   86.03   85.48   85.58   85.56   84.95   83.98   82.62   80.67
   78.68   76.27   73.24    69.7   65.46   60.88   56.56   52.54   48.51   45.83
   44.19   43.87   44.53    45.8   47.57   49.47   51.02   52.63   54.44   56.06
   58.16   59.83   61.92   63.92   65.65   67.12   68.47   69.27   70.73   71.47
   72.41   73.26   73.87   74.38   75.25   75.56   76.58   77.78   78.96    80.5
   82.21   84.25   86.37   87.86   89.13   90.11   90.52   90.98   91.05   90.86
   91.05   90.61   90.45   90.38   89.78   88.55   86.89   84.65   82.52   79.83
   76.92    74.1   70.65   67.07   63.35   60.08   56.68    53.9   51.12   49.79
   48.93   48.72   48.76   49.11   49.93   50.97   52.15    53.7    55.3   57.17
   59.55   61.81   63.09   64.38   66.12   68.56   70.32   71.39   72.47   74.23
   75.54   76.58   76.63   76.58   76.88    76.7   76.05   75.53   74.23   73.13
   71.69   69.89   67.25   64.77   61.18   57.18   52.54   48.18   44.69   42.73
    41.6   41.43   42.69   44.55   46.89   49.09      51    52.7   55.02   57.02
   59.23   61.39   63.48   64.86   66.42   67.37   68.49   69.49   70.18   70.86
   71.75   72.49   73.58   74.49   75.31   76.26   77.04   78.23   79.63   80.83
   82.42    84.5   86.88   89.46   91.59   93.45   95.13   96.16   96.53    96.9
   96.88   97.49   97.83   98.02   97.79   97.47   96.05   94.74    92.2   89.53
   87.17   84.57   81.83   79.77   76.73   73.32   69.36    65.3   61.79   58.66
   55.29   52.85   51.29   50.86   50.58   50.76   51.06    52.2   53.62   55.51
    57.9   60.47   63.16   65.26   67.59   69.76    71.8   73.68   75.41   76.81
   78.15   78.54   78.21   77.12   75.12    73.3   70.63   68.17    65.7   63.44
   60.81   58.32    55.3   51.86   47.85   42.97   37.93   33.44    30.1   27.84
   27.96   29.29   32.37   35.93   40.31   44.22   48.08   51.33   54.57   57.62
   60.69   63.73   66.42   68.15   69.76   70.87   71.62   72.71   73.41   74.15
   75.42   76.12   76.78   77.67    78.4   78.82   79.58   80.06   81.23   82.74
   84.62   86.99   90.07   92.97   95.67   97.69   99.24  100.28  100.39  100.13
   99.89   99.38   98.98   98.76   97.85    96.8   95.05   92.49   90.46   87.57
   84.55    81.2   78.28   75.62   72.89   68.86   65.17   61.26    58.2   55.19
   52.88   51.14   50.69   50.91    51.6   52.28   53.47   54.81   56.61   59.15
   61.94   65.33   69.73   73.84   76.94   79.08   80.59   82.24   84.04   84.77
   85.17   85.69   86.52   86.63    86.3   85.06   83.32   81.46   79.66   77.43
   75.48   72.69   69.48   65.94   62.01    57.5   52.42   46.91   42.12    39.2
   37.87   37.69   38.68   40.96   44.02   47.33   49.73   52.33   54.81   57.08
   59.54   62.09   64.71   66.93   68.61   70.04   71.78   72.89   73.65   74.11
   75.02   75.61   76.13   76.44   77.33   77.96   79.05   79.54   80.63   81.72
   83.13   85.27   88.21   90.97   94.44   96.98   98.81  100.38  101.15  101.21
  101.62  101.54  101.18  101.63  100.84   99.71   98.09    95.3   92.52   89.61
   85.84   83.22   79.47   75.54   71.55   66.72   62.39   58.58   54.55   51.81
   50.38   49.96   50.23   50.82   51.26   52.39   54.34   56.19   58.42   61.15
   64.61   69.23   74.18   78.54   82.96   87.35   91.14   93.21   94.93   96.02
    96.8   97.21   96.56   95.43   94.81   93.66   91.68    89.4   86.56   83.89
   81.41   78.69   75.26   71.67   67.58   62.82   56.99    50.4   44.38    39.8
   36.65   35.15   35.37   36.62   39.35   42.53   45.64   48.65   51.29   53.61
   56.07   58.85   61.42   63.53   65.34   66.56   68.27   69.67    70.8   72.11
   73.39    74.4   75.44   76.48   77.58   78.77   80.02   81.46   82.79   84.93
   87.39   90.74    94.2   97.24   99.52  101.29   102.7  103.89  104.16  103.68
  103.21  102.45   102.3  101.63   99.72   97.56   94.86   92.05   89.36    85.8
    82.1   78.35   73.07   68.41   63.14   58.09    53.2   49.34   46.36   45.76
   45.73   46.35   47.34   49.21   50.76   52.35   54.08   55.61   57.98   61.06
   64.66   68.93    73.5   78.45   83.66   88.26   91.81   94.47   96.13   97.25
   97.52   97.88   97.47   97.13   96.66   96.06   94.39   92.43   89.38   86.57
   83.21   79.65   74.78   70.12   64.53   58.57   52.25   45.75   39.63   35.22
   32.44   32.19   33.24    34.7   37.68    40.7   44.01    47.5   50.31      53
   56.78   60.22   63.21   66.21    67.9   68.73   69.82    70.4   70.75   72.07
    72.7   73.62   74.99   75.96   77.26   78.62   80.14   82.33   85.76   89.66
   93.55   96.61  100.06  102.64  104.49  105.56  105.76   105.8   105.9   104.9
  103.98  103.28  102.03   100.4   98.17    95.2   92.34   88.75    84.4   79.42
   74.18   68.49   62.73   57.27   52.78   49.59   48.07   47.68   48.07   49.19
   50.94    52.6   54.34   55.42   56.71   58.44   60.63   63.22   66.02   68.75
    71.7   74.83   78.65   83.41   87.73   91.79   95.32   98.01    99.9  101.24
  101.91  102.37  102.49  102.12  101.84  101.09   99.82   97.27    94.4   91.16
   87.57   83.36   79.22   74.08   68.58   62.41   55.72    48.9   43.26   38.55
   36.17   36.02   36.95   38.92   41.99   44.64   47.35   49.84   51.48   53.39
   55.55   58.07   60.94   63.18   64.59   66.24   67.38   68.65   69.74   70.72
   71.71   72.66   73.47   74.67   76.15    77.6    79.4   81.98   85.54   89.59
   93.11   95.96   98.33    99.8  101.12  101.96  101.85  101.93  101.85  101.39
  100.97   99.73   97.25   94.86   91.79    88.6   84.51   79.65   74.24    68.4
   61.69   55.32   49.89   46.39   44.41   43.95   44.36   46.12   48.26   50.19
   51.87   53.67   55.01      57   58.68   60.43   62.53   64.47   65.89   67.58
   69.17   71.45   74.83   78.24   82.39   86.98   91.29   95.13   98.41  100.29
  101.13  101.12  100.96  100.23    99.4   97.58    95.9   94.23   91.68   88.55
   84.93   80.82   76.58   71.51   65.96   60.03   53.47   47.27   42.79    40.3
   39.69   40.42   41.99   44.52   47.15   49.62   51.48   52.74   53.97   56.04
   58.24   60.82   63.21   65.51   67.39   68.56   69.59   70.63   71.58   71.93
   72.52   72.83   74.54   76.03   78.45   81.99   85.77   89.22   92.62   94.83
    97.6   99.11    99.3   99.29   99.02   98.75   98.49   98.22   97.96   96.54
   95.05   92.54   89.67    86.7   82.47    78.9   74.42   69.14    63.3   56.85
   50.59   46.04   42.59   41.23   41.08   41.97   43.73   45.54   47.42   49.09
   50.32   51.75   53.62   55.96   58.79   61.06   63.35   65.32   67.23   69.22
   71.39   73.63    77.1   80.86    84.5   87.91   90.78   94.19   96.93   99.69
  101.56  103.77  105.11  106.18   106.5  106.84  104.81  102.91  100.44   98.38
   95.77   91.76   86.41   81.45   74.97   67.93   61.06   54.94   50.76    48.9
   48.39   49.49    51.3   53.28   55.53   57.37   58.95   60.42   61.74   63.58
   65.89   67.68   69.81   71.65   72.98   74.61   76.03   76.88   78.15   79.23
   80.26   81.94   83.76   86.36   89.81   93.65   96.61    99.4  102.07  104.59
  106.55  107.72  107.52   108.1  108.33  108.15  107.31   105.8     104  102.96