Flow Title=2011 Flood Event BC Mid Day
Program Version=5.03
Use Restart= 0 
Restart Filename=YoloBypass_2016.p09.05MAR2009 2400.rst
Initial Flow Loc=American        ,A               ,22.195  ,21.75
Initial Flow Loc=American        ,A               ,0.191   ,11.072
Initial Flow Loc=Barker Slough   ,Small A         ,2687.425,0.19
Initial Flow Loc=Cache Slough    ,US to Hass      ,2275.979,1
Initial Flow Loc=Cache Slough    ,Hass to 2D      ,19883.95,2
Initial Flow Loc=CalhounCut      ,AA              ,2400.371,4.32
Initial Flow Loc=DeepWaterShipCha,A               ,34556.03,1
Initial Flow Loc=DeltaCross      ,DCC             ,1071.35 ,1
Initial Flow Loc=Elk Slough      ,To Sutter       ,15304.38,1
Initial Flow Loc=FeatherRiver    ,A               ,46191.73,65.1
Initial Flow Loc=FeatherRiver    ,A               ,12736   ,52.22
Initial Flow Loc=Georgianna      ,Georg to Sac    ,1718.89 ,1
Initial Flow Loc=HassSlough      ,To Cache        ,4682.563,1
Initial Flow Loc=Lindsey         ,Barker to 2D    ,9850.279,11.185
Initial Flow Loc=Miner Slough    ,Sutter to 2D    ,10647.88,82.3375
Initial Flow Loc=NCC             ,A               ,3509.071,13.564
Initial Flow Loc=Sacramento      ,Feather to NCC  ,1442.33 ,322.68
Initial Flow Loc=Sacramento      ,NCC to American ,106947.8,341.8
Initial Flow Loc=Sacramento      ,NCC to American ,80400   ,357.1525
Initial Flow Loc=Sacramento      ,Amer to Sutt Sl ,74027.38,372.505
Initial Flow Loc=Sacramento      ,Sutt to Steam   ,31893.07,450.415
Initial Flow Loc=Sacramento      ,Steam to DCC    ,29339.4 ,254.52
Initial Flow Loc=Sacramento      ,DCC to Georg    ,20776.3 ,318.4895
Initial Flow Loc=Sacramento      ,Georg to 2D     ,19783.05,347.3295
Initial Flow Loc=Sacramento      ,Wilkins - A     ,60311.51,40.9325
Initial Flow Loc=Steamboat Slough,Sac to Sutter   ,18671.58,203.56
Initial Flow Loc=Steamboat Slough,Sutter to 2D    ,11481.18,915.46
Initial Flow Loc=Sutter Slough   ,Sac to Elk      ,10711.84,574.74
Initial Flow Loc=Sutter Slough   ,Elk to Miner    ,9830.021,516.38
Initial Flow Loc=Sutter Slough   ,Miner to Steam  ,3768.972,303.9
Initial Storage Elev=Sutter Bypass   ,6.075
Initial Storage Elev=Yolo Bypass     ,1.33
Boundary Location=NCC             ,A               ,3509.071,        ,                ,                ,                ,                
Interval=1HOUR
Flow Hydrograph= 0 
DSS File=LT_BCs_daily_hourly_mean_flows_m_t_shift.dss
DSS Path=/NATOMAS CROSS CANAL/NCC/FLOW MID DAY/01JAN1996/1DAY/ESTIMATED/
Use DSS=True
Use Fixed Start Time=False
Fixed Start Date/Time=,
Is Critical Boundary=False
Critical Boundary Flow=
Boundary Location=Sacramento      ,Wilkins - A     ,60311.51,        ,                ,                ,                ,                
Interval=1HOUR
Flow Hydrograph= 0 
DSS File=LT_BCs_daily_hourly_mean_flows_m_t_shift.dss
DSS Path=/SACRAMENTO R BL WILKINS SLOUGH/GRIMES CA/FLOW MID DAY/01JAN1996/1DAY/USGS/
Use DSS=True
Use Fixed Start Time=False
Fixed Start Date/Time=,
Is Critical Boundary=False
Critical Boundary Flow=
Boundary Location=Sacramento      ,Wilkins - A     ,15797.7*,        ,                ,                ,                ,                
Interval=1HOUR
Lateral Inflow Hydrograph= 0 
DSS File=LT_BCs_daily_hourly_mean_flows_m_t_shift.dss
DSS Path=/KNIGHTS LANDING OUTFALL GATES/4_KLOG/FLOW MID DAY/01JAN1996/1DAY/DWR_WDL + ESTIMATED/
Use DSS=True
Use Fixed Start Time=False
Fixed Start Date/Time=,
Is Critical Boundary=False
Critical Boundary Flow=
Boundary Location=Barker Slough   ,Small A         ,2687.425,        ,                ,                ,                ,                
Interval=1DAY
Flow Hydrograph= 56 
       1     .98     .96     .94     .91     .89     .87      .9     3.7    6.92
    5.67    2.23    1.06    3.79    7.07    5.15    4.19    1.94     .62    -.15
    -.19    -.36    -.25    -.14    -.22    -.32    -.31     -.1     .01    -.09
     -.2    -.31    -.45    -.51    -.52     -.7    -.87    -.68    -.53    -.57
     -.5    -.23    -.46    -.63    -.51    -.48    -.74    -.65    -.82    -.72
    -.75    -.76   -1.11    -.96    -.86    -.98
DSS File=LT_BCs_daily_hourly_mean_flows_m_t_shift.dss
DSS Path=/CAMPBELL LAKE/CAMP/FLOW MID DAY/01JAN1996/1DAY/ESTIMATED/
Use DSS=False
Use Fixed Start Time=False
Fixed Start Date/Time=,
Is Critical Boundary=False
Critical Boundary Flow=
Boundary Location=Barker Slough   ,Small A         ,2574.70*,        ,                ,                ,                ,                
Interval=1HOUR
Lateral Inflow Hydrograph= 1321 
       1     .82     .63     .45     .26     .08    -.11    -.11    -.11    -.11
    -.11    -.11    -.11    -.11    -.11    -.11    -.11    -.11    -.11    -.11
    -.11    -.11    -.11    -.11    -.11       0       0       0       0       0
       0       0       0       0       0       0       0       0       0       0
       0       0       0       0       0       0       0       0       0       0
       0       0       0       0       0       0       0       0       0       0
       0       0       0       0       0       0       0       0       0       0
       0       0       0       0       0       0       0       0       0       0
       0       0       0       0       0       0       0       0       0       0
       0       0       0       0       0       0       0       0       0       0
       0       0       0       0       0       0       0       0       0       0
       0       0       0       0       0       0       0       0       0       0
       0       0       0       0       0       0       0       0       0       0
       0       0       0       0       0       0       0       0       0       0
       0       0       0       0       0       0       0       0       0       0
       0       0       0       0       0       0       0       0       0       0
       0       0       0       0       0       0       0       0       0    -.14
    -.14    -.14    -.14    -.14    -.14    -.14    -.14    -.14    -.14    -.14
    -.14    -.14    -.14    -.14    -.14    -.14    -.14    -.14    -.14    -.14
    -.14    -.14    -.14    -.06    -.06    -.06    -.06    -.06    -.06    -.06
    -.06    -.06    -.06    -.06    -.06    -.06    -.06    -.06    -.06    -.06
    -.06    -.06    -.06    -.06    -.06    -.06    -.06       0       0       0
       0       0       0       0       0       0       0       0       0       0
       0       0       0       0       0       0       0       0       0       0
       0       0       0       0       0       0       0       0       0       0
       0       0       0       0       0       0       0       0       0       0
       0       0       0       0       0       0       0       0       0       0
       0       0       0       0       0       0       0       0       0       0
       0       0       0       0       0       0       0       0       0       0
       0       0       0       0       0       0       0       0       0       0
       0       0       0       0       0       0       0       0       0       0
       0       0       0       0       0       0       0       0       0       0
       0       0       0       0       0       0       0       0       0       0
       0       0       0       0       0       0       0       0       0       0
       0       0       0       0       0       0       0       0       0       0
       0       0       0       0       0       0       0       0       0       0
       0       0       0       0       0       0       0       0       0       0
       0       0       0       0       0       0       0       0       0       0
       0       0       0       0       0       0       0       0       0       0
       0       0       0       0       0       0       0       0       0       0
       0       0       0       0       0       0       0       0       0       0
       0       0       0       0       0       0       0       0       0       0
       0       0       0       0       0       0       0       0       0       0
       0       0       0       0       0       0       0       0       0       0
       0       0       0       0       0       0       0       0       0       0
       0       0       0       0       0       0       0       0       0       0
       0       0       0       0       0       0       0       0       0       0
       0       0       0       0       0       0       0       0       0       0
       0       0       0       0       0       0       0       0       0       0
       0       0       0       0       0       0       0       0       0       0
       0       0       0       0       0       0       0       0       0       0
       0       0       0       0       0       0       0       0       0       0
       0       0       0       0       0       0       0       0       0       0
       0       0       0       0       0       0       0       0       0       0
       0       0       0       0       0       0       0       0       0       0
       0       0       0       0       0       0       0       0       0       0
       0       0       0       0       0       0       0       0       0       0
       0       0       0       0       0       0       0       0       0       0
       0       0       0       0       0       0       0       0       0       0
       0       0       0       0       0       0       0       0       0       0
       0       0       0       0       0       0       0       0       0       0
       0       0       0       0       0       0       0       0       0       0
       0       0       0       0       0     -.2     -.2     -.2     -.2     -.2
     -.2     -.2     -.2     -.2     -.2     -.2     -.2     -.2     -.2     -.2
     -.2     -.2     -.2     -.2     -.2     -.2     -.2     -.2     -.2       0
       0       0       0       0       0       0       0       0       0       0
       0       0       0       0       0       0       0       0       0       0
       0       0       0       0       0       0       0       0       0       0
       0       0       0       0       0       0       0       0       0       0
       0       0       0       0       0       0       0       0       0       0
       0       0       0       0       0       0       0       0       0       0
       0       0       0       0       0       0       0       0       0       0
       0    -.14    -.14    -.14    -.14    -.14    -.14    -.14    -.14    -.14
    -.14    -.14    -.14    -.14    -.14    -.14    -.14    -.14    -.14    -.14
    -.14    -.14    -.14    -.14    -.14    -.11    -.11    -.11    -.11    -.11
    -.11    -.11    -.11    -.11    -.11    -.11    -.11    -.11    -.11    -.11
    -.11    -.11    -.11    -.11    -.11    -.11    -.11    -.11    -.11    -.14
    -.14    -.14    -.14    -.14    -.14    -.14    -.14    -.14    -.14    -.14
    -.14    -.14    -.14    -.14    -.14    -.14    -.14    -.14    -.14    -.14
    -.14    -.14    -.14     -.2     -.2     -.2     -.2     -.2     -.2     -.2
     -.2     -.2     -.2     -.2     -.2     -.2     -.2     -.2     -.2     -.2
     -.2     -.2     -.2     -.2     -.2     -.2     -.2    -.31    -.31    -.31
    -.31    -.31    -.31    -.31    -.31    -.31    -.31    -.31    -.31    -.31
    -.31    -.31    -.31    -.31    -.31    -.31    -.31    -.31    -.31    -.31
    -.31    -.31    -.31    -.31    -.31    -.31    -.31    -.31    -.31    -.31
    -.31    -.31    -.31    -.31    -.31    -.31    -.31    -.31    -.31    -.31
    -.31    -.31    -.31    -.31    -.31    -.42    -.42    -.42    -.42    -.42
    -.42    -.42    -.42    -.42    -.42    -.42    -.42    -.42    -.42    -.42
    -.42    -.42    -.42    -.42    -.42    -.42    -.42    -.42    -.42    -.48
    -.48    -.48    -.48    -.48    -.48    -.48    -.48    -.48    -.48    -.48
    -.48    -.48    -.48    -.48    -.48    -.48    -.48    -.48    -.48    -.48
    -.48    -.48    -.48    -.17    -.17    -.17    -.17    -.17    -.17    -.17
    -.17    -.17    -.17    -.17    -.17    -.17    -.17    -.17    -.17    -.17
    -.17    -.17    -.17    -.17    -.17    -.17    -.17       0       0       0
       0       0       0       0       0       0       0       0       0       0
       0       0       0       0       0       0       0       0       0       0
       0    -.34    -.34    -.34    -.34    -.34    -.34    -.34    -.34    -.34
    -.34    -.34    -.34    -.34    -.34    -.34    -.34    -.34    -.34    -.34
    -.34    -.34    -.34    -.34    -.34    -.28    -.28    -.28    -.28    -.28
    -.28    -.28    -.28    -.28    -.28    -.28    -.28    -.28    -.28    -.28
    -.28    -.28    -.28    -.28    -.28    -.28    -.28    -.28    -.28    -.42
    -.42    -.42    -.42    -.42    -.42    -.42    -.42    -.42    -.42    -.42
    -.42    -.42    -.42    -.42    -.42    -.42    -.42    -.42    -.42    -.42
    -.42    -.42    -.42    -.59    -.59    -.59    -.59    -.59    -.59    -.59
    -.59    -.59    -.59    -.59    -.59    -.59    -.59    -.59    -.59    -.59
    -.59    -.59    -.59    -.59    -.59    -.59    -.59    -.34    -.34    -.34
    -.34    -.34    -.34    -.34    -.34    -.34    -.34    -.34    -.34    -.34
    -.34    -.34    -.34    -.34    -.34    -.34    -.34    -.34    -.34    -.34
    -.34    -.31    -.31    -.31    -.31    -.31    -.31    -.31    -.31    -.31
    -.31    -.31    -.31    -.31    -.31    -.31    -.31    -.31    -.31    -.31
    -.31    -.31    -.31    -.31    -.31    -.85    -.85    -.85    -.85    -.85
    -.85    -.85    -.85    -.85    -.85    -.85    -.85    -.85    -.85    -.85
    -.85    -.85    -.85    -.85    -.85    -.85    -.85    -.85    -.85    -.71
    -.71    -.71    -.71    -.71    -.71    -.71    -.71    -.71    -.71    -.71
    -.71    -.71    -.71    -.71    -.71    -.71    -.71    -.71    -.71    -.71
    -.71    -.71    -.71    -.88    -.88    -.88    -.88    -.88    -.88    -.88
    -.88    -.88    -.88    -.88    -.88    -.88    -.88    -.88    -.88    -.88
    -.88    -.88    -.88    -.88    -.88    -.88    -.88   -1.16   -1.16   -1.16
   -1.16   -1.16   -1.16   -1.16   -1.16   -1.16   -1.16   -1.16   -1.16   -1.16
   -1.16   -1.16   -1.16   -1.16   -1.16   -1.16   -1.16   -1.16   -1.16   -1.16
   -1.16   -1.39   -1.39   -1.39   -1.39   -1.39   -1.39   -1.39   -1.39   -1.39
   -1.39   -1.39   -1.39   -1.39   -1.39   -1.39   -1.39   -1.39   -1.39   -1.39
   -1.39   -1.39   -1.39   -1.39   -1.39    -.65    -.65    -.65    -.65    -.65
    -.65    -.65    -.65    -.65    -.65    -.65    -.65    -.65    -.65    -.65
    -.65    -.65    -.65    -.65    -.65    -.65    -.65    -.65    -.65    -.31
    -.31    -.31    -.31    -.31    -.31    -.31    -.31    -.31    -.31    -.31
    -.31    -.31    -.31    -.31    -.31    -.31    -.31    -.31    -.31    -.31
    -.31    -.31    -.31    -.88    -.88    -.88    -.88    -.88    -.88    -.88
    -.88    -.88    -.88    -.88    -.88    -.88    -.88    -.88    -.88    -.88
    -.88    -.88    -.88    -.88    -.88    -.88    -.88   -1.64   -1.64   -1.64
   -1.64   -1.64   -1.64   -1.64   -1.64   -1.64   -1.64   -1.64   -1.64   -1.64
   -1.64   -1.64   -1.64   -1.64   -1.64   -1.64   -1.64   -1.64   -1.64   -1.64
   -1.64
DSS File=LT_BCs_daily_hourly_mean_flows_m.dss
DSS Path=/NORTHBAY AQUEDUCT (EXPORTS)/3_NBAQ/FLOW/01NOV1996/1HOUR/DWR_DAYFLOW/
Use DSS=False
Use Fixed Start Time=False
Fixed Start Date/Time=,
Is Critical Boundary=False
Critical Boundary Flow=
Boundary Location=American        ,A               ,1.893   ,        ,                ,                ,                ,                
Interval=1HOUR
Lateral Inflow Hydrograph= 0 
DSS File=LT_BCs_daily_hourly_mean_flows_m_t_shift.dss
DSS Path=/STEELHEAD CREEK/SHC/FLOW MID DAY/01JAN1996/1DAY/GAUGED + ESTIMATED/
Use DSS=True
Use Fixed Start Time=False
Fixed Start Date/Time=,
Is Critical Boundary=False
Critical Boundary Flow=
Boundary Location=Sacramento      ,NCC to American ,80400   ,        ,                ,                ,                ,                
Elev Controlled Gate=Gates 1-6   ,,,0.02032,0.00508,1.829,0,0, 1 
Elev Controlled Gate Ref=8.382,7.52,Sacramento      ,Amer to Sutt Sl ,73137.26,                
Elev Controlled Gate Stage Diff=,,                ,                ,        ,                ,                ,                ,        ,                
Elev Controlled Gate=Gates 7-13  ,,,0.02032,0.00508,1.829,0,0, 1 
Elev Controlled Gate Ref=8.447,7.534,Sacramento      ,Amer to Sutt Sl ,73137.26,                
Elev Controlled Gate Stage Diff=,,                ,                ,        ,                ,                ,                ,        ,                
Elev Controlled Gate=Gates 14-20 ,,,0.02032,0.00508,1.829,0,0, 1 
Elev Controlled Gate Ref=8.516,7.549,Sacramento      ,Amer to Sutt Sl ,73137.26,                
Elev Controlled Gate Stage Diff=,,                ,                ,        ,                ,                ,                ,        ,                
Elev Controlled Gate=Gates 21-27 ,,,0.02032,0.00508,1.829,0,0, 1 
Elev Controlled Gate Ref=8.578,7.563,Sacramento      ,Amer to Sutt Sl ,73137.26,                
Elev Controlled Gate Stage Diff=,,                ,                ,        ,                ,                ,                ,        ,                
Elev Controlled Gate=Gates 28-34 ,,,0.02032,0.00508,1.829,0,0, 1 
Elev Controlled Gate Ref=8.643,7.577,Sacramento      ,Amer to Sutt Sl ,73137.26,                
Elev Controlled Gate Stage Diff=,,                ,                ,        ,                ,                ,                ,        ,                
Elev Controlled Gate=Gates 35-41 ,,,0.02032,0.00508,1.829,0,0, 1 
Elev Controlled Gate Ref=8.709,7.591,Sacramento      ,Amer to Sutt Sl ,73137.26,                
Elev Controlled Gate Stage Diff=,,                ,                ,        ,                ,                ,                ,        ,                
Elev Controlled Gate=Gates 42-48 ,,,0.02032,0.00508,1.829,0,0, 1 
Elev Controlled Gate Ref=8.839,7.62,Sacramento      ,Amer to Sutt Sl ,73137.26,                
Elev Controlled Gate Stage Diff=,,                ,                ,        ,                ,                ,                ,        ,                
Boundary Location=Elk Slough      ,To Sutter       ,15304.38,        ,                ,                ,                ,                
Interval=1YEAR
Flow Hydrograph= 2 
       1       1
DSS Path=
Use DSS=False
Use Fixed Start Time=False
Fixed Start Date/Time=,
Is Critical Boundary=False
Critical Boundary Flow=
Boundary Location=CalhounCut      ,AA              ,2400.371,        ,                ,                ,                ,                
Interval=1HOUR
Flow Hydrograph= 0 
DSS File=LT_BCs_daily_hourly_mean_flows_m_t_shift.dss
DSS Path=/CALHOUN CUT/CCH/FLOW MID DAY/01JAN1996/1DAY/ESTIMATED/
Use DSS=True
Use Fixed Start Time=False
Fixed Start Date/Time=,
Is Critical Boundary=False
Critical Boundary Flow=
Boundary Location=HassSlough      ,To Cache        ,4682.563,        ,                ,                ,                ,                
Interval=1YEAR
Flow Hydrograph= 2 
       1       1
DSS Path=
Use DSS=False
Use Fixed Start Time=False
Fixed Start Date/Time=,
Is Critical Boundary=False
Critical Boundary Flow=
Boundary Location=HassSlough      ,To Cache        ,3475.33*,        ,                ,                ,                ,                
Interval=1DAY
Lateral Inflow Hydrograph= 0 
DSS File=LT_BCs_daily_hourly_mean_flows_m_t_shift.dss
DSS Path=/HAAS SLOUGH/HAAS/FLOW MID DAY/01JAN1996/1DAY/ESTIMATED/
Use DSS=True
Use Fixed Start Time=False
Fixed Start Date/Time=,
Is Critical Boundary=False
Critical Boundary Flow=
Boundary Location=American        ,A               ,22.195  ,        ,                ,                ,                ,                
Interval=1HOUR
Flow Hydrograph= 0 
DSS File=LT_BCs_daily_hourly_mean_flows_m_t_shift.dss
DSS Path=/AMERICAN R/FAIR OAKS CA/FLOW MID DAY/01JAN2009/1DAY/USGS/
Use DSS=True
Use Fixed Start Time=False
Fixed Start Date/Time=,
Is Critical Boundary=False
Critical Boundary Flow=
Boundary Location=DeltaCross      ,DCC             ,1071.35 ,        ,                ,                ,                ,                
Interval=1YEAR
Flow Hydrograph= 2 
       0       0
DSS Path=
Use DSS=False
Use Fixed Start Time=False
Fixed Start Date/Time=,
Is Critical Boundary=False
Critical Boundary Flow=
Boundary Location=Georgianna      ,Georg to Sac    ,1718.89 ,        ,                ,                ,                ,                
Interval=15MIN
Flow Hydrograph= 5281 
       1  -15.17  -31.33   -47.5  -63.66  -79.83  -95.99 -112.16 -128.32 -144.49
 -160.65 -161.56 -162.16 -162.78 -163.62 -164.36 -165.54 -166.47 -166.67 -167.42
 -168.51 -168.86 -169.32  -169.5 -169.55 -169.73  -169.1 -167.98 -167.77 -166.79
 -165.53 -164.67 -164.22 -163.44 -162.87 -161.22 -160.19 -158.99 -157.26 -155.34
 -153.73 -151.85 -150.69 -149.05 -148.05 -147.52 -147.23 -147.11  -147.4 -147.63
 -148.79 -149.27 -149.89 -150.43 -151.45 -152.31 -152.91 -153.54 -154.13 -154.78
 -155.48 -156.42 -157.29 -158.44 -159.04 -160.44 -161.52 -162.89 -163.49 -164.29
 -165.49 -166.81 -167.87 -168.85 -169.55 -170.88 -171.71 -172.72 -173.67 -174.95
 -176.44 -178.04 -178.61 -179.96 -180.75 -181.35 -181.09 -180.55 -179.98 -179.63
 -178.69 -177.69 -176.22 -174.82 -173.79 -172.34 -170.97 -169.42 -167.81 -166.09
 -164.98 -163.54 -162.14 -161.23  -160.5 -159.65 -159.19 -158.66 -158.13 -157.78
 -157.55 -157.14 -157.44 -158.28 -159.01 -160.37 -161.87 -163.26 -164.52 -165.63
 -166.49    -167 -168.04 -168.26 -168.69 -169.01 -168.85 -168.81 -168.85    -168
 -167.55 -166.52 -166.03 -165.22 -163.75 -162.38 -160.96 -159.34 -157.86 -156.33
 -154.65 -153.33 -152.11 -150.81 -150.23 -149.75 -149.16 -148.35 -148.85 -149.06
 -149.38 -149.94 -150.05 -150.73 -152.23 -152.73 -153.72 -155.03 -155.84 -157.05
 -157.79 -159.17 -160.14 -161.32 -162.26 -163.36 -164.39 -165.58 -166.16 -166.88
  -167.3 -168.08 -168.77 -169.68 -170.46 -171.69 -173.41 -174.68 -175.58  -176.9
 -178.13 -179.46  -180.8 -181.48 -182.36  -183.3 -183.57 -183.19 -182.83  -181.4
 -180.19 -179.16 -177.54  -176.2 -175.24 -173.45 -171.87 -170.27 -168.22 -166.58
 -165.03 -162.92 -161.56 -160.49 -159.62 -158.93 -157.99 -157.16 -156.86  -156.8
  -156.9 -157.19  -157.6 -158.65 -159.83 -160.86    -162 -163.44 -164.98    -167
 -168.66 -170.49  -172.6 -173.85 -175.17 -176.49 -176.94 -177.42 -177.04 -176.79
 -176.45 -175.81 -174.02 -172.94 -171.34 -170.18 -168.57 -166.75 -165.04 -163.55
 -161.53 -159.82 -157.49 -155.65 -154.57  -153.8 -153.45 -153.25 -153.55 -154.29
 -154.83 -155.33 -155.67  -156.3 -157.22 -157.56 -158.28 -159.24 -160.16 -160.74
 -161.41 -161.83 -162.93 -163.95  -164.8 -165.78 -166.88 -167.72 -168.44    -169
 -169.51 -169.95 -170.39 -171.17 -172.15 -173.45 -174.53  -175.9 -177.43 -179.04
 -180.65 -182.02 -183.72 -185.33 -186.54 -187.47 -188.08 -187.83 -187.89    -187
 -186.21 -185.58 -184.85 -184.04 -183.37 -182.49 -181.74 -181.11 -179.79 -178.77
 -176.99 -175.88 -174.29 -173.13 -172.12 -171.47 -171.13 -171.83 -171.96 -173.17
 -174.29 -175.38 -177.05 -177.83 -179.33 -181.02 -182.29 -183.71 -184.69    -186
 -187.98 -189.69 -191.55 -193.63 -196.04 -198.49 -200.49 -202.19  -203.1 -203.72
 -204.26 -204.03 -203.73 -203.44 -203.32 -203.23 -203.04 -202.22 -201.39 -199.97
 -197.96  -195.9 -193.96 -191.51 -189.57 -187.65 -186.88 -186.19 -185.68  -185.4
  -186.3 -186.97 -188.24 -189.16 -190.54 -191.86 -193.18 -194.27 -195.46 -196.24
 -197.34 -198.59 -200.02 -201.33 -202.08 -203.36 -204.99 -206.68 -208.55 -209.67
 -211.29 -213.48 -214.67 -216.21 -217.48 -218.94 -220.87 -222.32 -224.23  -226.7
 -228.95 -231.22 -232.74 -234.44 -235.73 -236.05 -236.99 -237.04 -236.58 -236.38
 -236.32 -236.21 -236.44 -235.54 -235.37 -235.23 -234.53  -232.9 -231.72 -230.12
 -228.59 -226.93 -225.86  -224.9 -224.71 -224.92 -225.44 -226.14 -226.87 -227.95
 -229.22 -230.63 -231.87  -233.5 -235.78 -237.87 -239.68 -241.61 -243.57 -245.81
  -247.5 -249.17 -251.16 -253.13 -254.93 -257.07 -258.82 -261.09 -262.42 -263.77
 -264.71 -265.81 -266.72 -267.31 -267.17 -267.91 -268.35 -268.31 -267.78 -266.62
 -265.67 -264.93 -263.37 -261.52  -260.2 -259.37 -258.67 -259.01 -259.92 -260.83
 -262.17 -264.01 -266.05 -268.88 -270.57 -272.15 -274.27 -276.49 -278.42 -280.26
 -281.18 -282.53  -283.5 -284.55 -285.67 -286.71 -287.41 -288.35 -289.29 -290.41
 -291.45 -292.48 -293.54 -295.07 -296.26 -297.69 -298.97 -300.55 -302.14 -303.59
 -305.08 -306.52 -307.84 -309.29 -310.44 -311.19 -312.26 -312.99  -313.7 -314.23
 -314.57 -314.53 -314.93 -314.86 -314.48 -314.36 -314.03 -313.74 -313.47 -313.02
 -312.97 -313.24 -313.54 -314.22 -314.71 -315.65 -316.69  -317.4 -317.84 -318.59
 -318.92 -319.83 -320.37 -320.95 -321.76 -322.67 -323.46  -324.3 -324.98 -325.93
 -326.49 -327.27 -328.12 -328.99 -329.93 -331.17 -332.14 -333.11 -333.96 -335.17
 -335.96 -336.71 -337.12 -337.62 -338.03 -338.26    -338 -337.93 -337.87 -337.71
 -337.16 -336.89 -336.33 -335.84 -335.41 -334.79 -334.22 -334.03 -334.05  -334.3
 -334.62  -335.1 -335.72 -336.19 -336.85 -337.26 -337.75 -338.43 -338.79 -339.33
 -340.06 -340.46 -341.04 -341.44 -341.84 -342.31 -342.79 -343.01 -343.45 -343.73
 -344.28 -344.47 -344.77 -345.11 -345.73 -346.39 -347.55 -348.44 -349.63 -350.85
  -352.1 -353.18 -354.11 -354.64 -355.37 -355.97 -356.55  -356.5 -356.69 -356.71
 -356.67 -356.35 -356.15 -355.53 -355.18 -354.57 -354.05 -353.22 -352.61  -351.9
 -351.52 -351.27    -351 -350.95 -351.32  -351.7 -352.07 -352.25 -352.78 -353.25
 -353.92  -354.2 -354.58 -355.01 -355.67    -356 -356.54 -356.62 -356.99 -357.25
  -357.4 -357.78 -358.19 -358.81 -359.98    -361 -362.32 -363.89 -364.99 -365.95
 -366.92  -367.4 -367.97 -368.11  -368.2 -368.29 -368.17 -367.83 -367.34 -366.77
 -366.04 -365.21 -364.07 -362.92 -361.87 -360.88 -360.24 -359.85 -359.47 -359.49
 -359.84 -360.02 -360.51  -360.6  -360.9 -361.26 -361.34 -361.62 -361.99 -362.16
 -362.64 -362.69 -362.75 -363.05 -363.56 -363.79 -363.94 -363.97 -364.22 -364.26
 -364.62 -364.74 -365.05 -365.79 -366.72 -367.76 -368.99 -370.06 -371.08 -371.89
 -372.74 -373.45 -373.98 -374.39 -374.77 -374.85 -375.17 -374.96 -374.72  -374.6
  -374.4 -373.82 -373.28 -372.56 -371.93 -370.98 -370.09 -369.04 -368.35 -367.75
 -367.31 -366.84 -366.58  -366.5 -366.39 -366.28 -366.25 -366.26 -366.29 -366.51
 -366.43 -366.55 -366.63 -366.89 -366.98 -367.16 -367.42 -367.76 -368.22 -368.99
 -369.55 -370.34 -371.17 -372.14 -373.06 -374.24 -375.06 -376.49 -377.44 -377.96
 -378.01 -377.85 -377.02  -376.1  -374.6  -373.1  -372.1 -371.28 -370.95 -370.83
 -370.82 -370.81 -370.86 -371.05 -370.72 -369.79 -369.05 -368.19 -367.48 -367.09
 -366.38 -365.85 -365.47 -364.86 -364.26 -363.39 -362.56 -361.49 -360.57 -360.05
 -359.98 -360.08 -360.34 -360.42 -361.01  -361.7 -362.13 -362.49 -362.75 -362.86
 -363.23 -363.73 -364.18 -365.21  -366.6 -367.75 -369.51 -371.56 -373.07 -374.74
 -375.96 -376.84 -378.17 -378.78 -379.33 -380.02 -380.68 -381.14 -381.34  -381.5
 -381.68 -381.12 -380.83 -380.35 -379.45 -378.42 -377.36 -376.25 -375.56 -374.41
 -373.28  -372.5 -371.85 -370.99 -370.32  -369.7 -369.54  -369.2 -369.17 -368.89
 -368.64 -368.41 -368.07 -367.48 -367.12  -366.7 -366.64 -366.68 -366.85 -367.01
 -367.46 -368.17 -368.69 -369.55 -370.38 -371.54 -372.84 -373.86 -374.91 -376.26
 -377.09 -378.11 -378.56 -379.09 -379.97 -380.24 -380.34 -380.58 -380.66 -380.22
  -379.3 -377.76 -376.64 -375.57 -374.33 -373.31 -372.44 -372.14 -372.06 -371.73
 -371.52 -371.16 -370.53 -370.45 -370.37 -370.32 -370.27 -370.19 -370.45 -370.58
 -370.92 -371.05 -371.21  -371.5 -371.85 -372.11 -372.71 -373.25 -373.88 -374.58
 -375.59 -376.59 -377.86 -379.04 -380.34 -381.28 -382.18 -382.74 -383.54 -384.16
 -384.77  -385.3 -385.73 -386.02 -386.63 -386.55 -386.56 -386.33 -385.84 -385.55
 -384.95 -384.09 -383.26 -381.98 -380.95 -379.87  -378.8 -377.99 -377.54 -376.99
  -376.7 -376.36  -375.8 -375.52 -375.42 -374.97 -374.66 -374.66 -374.42 -374.49
 -374.09 -373.65  -373.2  -373.1 -372.74 -372.55  -372.5 -372.78 -373.08 -373.63
 -374.03 -374.66 -375.28 -376.13 -376.97 -377.94 -379.06 -380.28 -381.38 -382.33
 -383.15 -383.58 -383.99 -384.05 -384.24 -384.17 -384.18 -383.87 -383.85 -383.79
 -383.44 -382.67 -382.03 -380.97 -380.08 -379.31 -378.27 -377.46 -376.64 -376.12
 -375.72 -375.48 -374.95 -374.64 -374.47 -374.48 -374.07 -374.09 -374.03 -374.19
 -373.96 -373.47 -373.57 -373.42 -373.43 -373.67 -373.97 -374.79 -375.61 -375.97
 -377.06  -378.2 -379.02 -380.04 -380.82 -382.12 -383.25 -384.06 -384.37 -384.87
    -385 -385.03 -384.68 -384.38 -383.85 -383.69  -383.2 -382.86 -382.18 -381.58
 -380.76  -380.1 -379.06 -378.24 -377.25 -376.74 -376.12 -375.97 -375.91 -375.82
 -375.57 -375.46 -375.25 -375.39 -374.89  -374.3 -373.96 -373.73 -373.31 -373.16
 -372.87 -372.89 -373.01 -373.02 -373.03 -373.26  -373.5 -373.63 -373.67 -374.09
 -374.59 -375.12 -375.66 -376.19 -376.84 -377.78 -378.43 -379.18 -379.75 -380.47
 -380.92 -381.29 -381.54 -381.44 -381.47 -381.48 -381.14 -380.95 -380.61 -379.87
 -379.31 -378.48 -377.57  -376.8 -375.91 -374.83 -374.06 -373.53 -373.09  -372.9
 -372.67 -372.65 -372.72 -372.66 -372.83 -372.72 -372.42    -372 -371.72  -371.7
 -371.68 -371.41 -371.33 -371.16 -371.46 -371.43  -371.4 -371.73 -372.06 -372.49
 -373.33 -373.81  -374.7 -375.38 -375.89 -376.32 -376.66 -376.88 -377.07 -376.96
 -376.92 -376.94  -377.1 -377.22  -377.2 -377.48 -377.31  -377.2 -376.65 -375.78
    -375 -373.81 -372.68 -372.05 -371.31 -371.09 -370.96 -370.94 -371.23 -371.17