Flow Title=2009 Flood Event NO INIT FLOW cbc
Program Version=5.07
Use Restart= 0 
Restart Filename=YoloBypass_2016.p09.05MAR2009 2400.rst
Initial Storage Elev=Sutter Bypass   ,4.6
Initial Storage Elev=Yolo Bypass     ,2.21
Boundary Location=NCC             ,A               ,3509.071,        ,                ,                ,                ,                                
Interval=1HOUR
Flow Hydrograph= 0 
DSS File=LT_BCs_daily_hourly_mean_flows_m.dss
DSS Path=/NATOMAS CROSS CANAL/NCC/FLOW/01JAN1996/1DAY/ESTIMATED/
Use DSS=True
Use Fixed Start Time=False
Fixed Start Date/Time=,
Is Critical Boundary=False
Critical Boundary Flow=
Boundary Location=Sacramento      ,Wilkins - A     ,60311.51,        ,                ,                ,                ,                                
Interval=1HOUR
Flow Hydrograph= 0 
DSS File=LT_BCs_daily_hourly_mean_flows_m.dss
DSS Path=/SACRAMENTO R BL WILKINS SLOUGH/GRIMES CA/FLOW/01JAN1996/1DAY/USGS/
Use DSS=True
Use Fixed Start Time=False
Fixed Start Date/Time=,
Is Critical Boundary=False
Critical Boundary Flow=
Boundary Location=Sacramento      ,Wilkins - A     ,15797.7*,        ,                ,                ,                ,                                
Interval=1HOUR
Lateral Inflow Hydrograph= 0 
DSS File=LT_BCs_daily_hourly_mean_flows_m.dss
DSS Path=/KNIGHTS LANDING RIDGE CUT/2_KLRC/FLOW/01OCT1996/1HOUR/GAUGED + ESTIMATED/
Use DSS=True
Use Fixed Start Time=False
Fixed Start Date/Time=,
Is Critical Boundary=False
Critical Boundary Flow=
Boundary Location=Barker Slough   ,Small A         ,2687.425,        ,                ,                ,                ,                                
Interval=1HOUR
Flow Hydrograph= 0 
DSS File=LT_BCs_daily_hourly_mean_flows_m.dss
DSS Path=/CAMPBELL LAKE/CAMP/FLOW/01JAN1996/1DAY/ESTIMATED/
Use DSS=True
Use Fixed Start Time=False
Fixed Start Date/Time=,
Is Critical Boundary=False
Critical Boundary Flow=
Boundary Location=Barker Slough   ,Small A         ,2574.70*,        ,                ,                ,                ,                                
Interval=1HOUR
Lateral Inflow Hydrograph= 1393 
      .1       0    -.11    -.21    -.32    -.42    -.52    -.63    -.73    -.83
    -.94   -1.04   -1.15   -1.25   -1.25   -1.25   -1.25   -1.25   -1.25   -1.25
   -1.25   -1.25   -1.25   -1.25   -1.25   -1.61   -1.61   -1.61   -1.61   -1.61
   -1.61   -1.61   -1.61   -1.61   -1.61   -1.61   -1.61   -1.61   -1.61   -1.61
   -1.61   -1.61   -1.61   -1.61   -1.61   -1.61   -1.61   -1.61   -1.61    -.62
    -.62    -.62    -.62    -.62    -.62    -.62    -.62    -.62    -.62    -.62
    -.62    -.62    -.62    -.62    -.62    -.62    -.62    -.62    -.62    -.62
    -.62    -.62    -.62    -1.5    -1.5    -1.5    -1.5    -1.5    -1.5    -1.5
    -1.5    -1.5    -1.5    -1.5    -1.5    -1.5    -1.5    -1.5    -1.5    -1.5
    -1.5    -1.5    -1.5    -1.5    -1.5    -1.5    -1.5    -.91    -.91    -.91
    -.91    -.91    -.91    -.91    -.91    -.91    -.91    -.91    -.91    -.91
    -.91    -.91    -.91    -.91    -.91    -.91    -.91    -.91    -.91    -.91
    -.91   -1.61   -1.61   -1.61   -1.61   -1.61   -1.61   -1.61   -1.61   -1.61
   -1.61   -1.61   -1.61   -1.61   -1.61   -1.61   -1.61   -1.61   -1.61   -1.61
   -1.61   -1.61   -1.61   -1.61   -1.61   -1.25   -1.25   -1.25   -1.25   -1.25
   -1.25   -1.25   -1.25   -1.25   -1.25   -1.25   -1.25   -1.25   -1.25   -1.25
   -1.25   -1.25   -1.25   -1.25   -1.25   -1.25   -1.25   -1.25   -1.25   -1.13
   -1.13   -1.13   -1.13   -1.13   -1.13   -1.13   -1.13   -1.13   -1.13   -1.13
   -1.13   -1.13   -1.13   -1.13   -1.13   -1.13   -1.13   -1.13   -1.13   -1.13
   -1.13   -1.13   -1.13   -1.19   -1.19   -1.19   -1.19   -1.19   -1.19   -1.19
   -1.19   -1.19   -1.19   -1.19   -1.19   -1.19   -1.19   -1.19   -1.19   -1.19
   -1.19   -1.19   -1.19   -1.19   -1.19   -1.19   -1.19   -1.33   -1.33   -1.33
   -1.33   -1.33   -1.33   -1.33   -1.33   -1.33   -1.33   -1.33   -1.33   -1.33
   -1.33   -1.33   -1.33   -1.33   -1.33   -1.33   -1.33   -1.33   -1.33   -1.33
   -1.33   -1.42   -1.42   -1.42   -1.42   -1.42   -1.42   -1.42   -1.42   -1.42
   -1.42   -1.42   -1.42   -1.42   -1.42   -1.42   -1.42   -1.42   -1.42   -1.42
   -1.42   -1.42   -1.42   -1.42   -1.42   -1.36   -1.36   -1.36   -1.36   -1.36
   -1.36   -1.36   -1.36   -1.36   -1.36   -1.36   -1.36   -1.36   -1.36   -1.36
   -1.36   -1.36   -1.36   -1.36   -1.36   -1.36   -1.36   -1.36   -1.36   -1.61
   -1.61   -1.61   -1.61   -1.61   -1.61   -1.61   -1.61   -1.61   -1.61   -1.61
   -1.61   -1.61   -1.61   -1.61   -1.61   -1.61   -1.61   -1.61   -1.61   -1.61
   -1.61   -1.61   -1.61   -1.76   -1.76   -1.76   -1.76   -1.76   -1.76   -1.76
   -1.76   -1.76   -1.76   -1.76   -1.76   -1.76   -1.76   -1.76   -1.76   -1.76
   -1.76   -1.76   -1.76   -1.76   -1.76   -1.76   -1.76   -1.87   -1.87   -1.87
   -1.87   -1.87   -1.87   -1.87   -1.87   -1.87   -1.87   -1.87   -1.87   -1.87
   -1.87   -1.87   -1.87   -1.87   -1.87   -1.87   -1.87   -1.87   -1.87   -1.87
   -1.87   -1.98   -1.98   -1.98   -1.98   -1.98   -1.98   -1.98   -1.98   -1.98
   -1.98   -1.98   -1.98   -1.98   -1.98   -1.98   -1.98   -1.98   -1.98   -1.98
   -1.98   -1.98   -1.98   -1.98   -1.98   -1.64   -1.64   -1.64   -1.64   -1.64
   -1.64   -1.64   -1.64   -1.64   -1.64   -1.64   -1.64   -1.64   -1.64   -1.64
   -1.64   -1.64   -1.64   -1.64   -1.64   -1.64   -1.64   -1.64   -1.64   -1.16
   -1.16   -1.16   -1.16   -1.16   -1.16   -1.16   -1.16   -1.16   -1.16   -1.16
   -1.16   -1.16   -1.16   -1.16   -1.16   -1.16   -1.16   -1.16   -1.16   -1.16
   -1.16   -1.16   -1.16    -.62    -.62    -.62    -.62    -.62    -.62    -.62
    -.62    -.62    -.62    -.62    -.62    -.62    -.62    -.62    -.62    -.62
    -.62    -.62    -.62    -.62    -.62    -.62    -.62    -.23    -.23    -.23
    -.23    -.23    -.23    -.23    -.23    -.23    -.23    -.23    -.23    -.23
    -.23    -.23    -.23    -.23    -.23    -.23    -.23    -.23    -.23    -.23
    -.23    -.23    -.23    -.23    -.23    -.23    -.23    -.23    -.23    -.23
    -.23    -.23    -.23    -.23    -.23    -.23    -.23    -.23    -.23    -.23
    -.23    -.23    -.23    -.23    -.23    -.23    -.23    -.23    -.23    -.23
    -.23    -.23    -.23    -.23    -.23    -.23    -.23    -.23    -.23    -.23
    -.23    -.23    -.23    -.23    -.23    -.23    -.23    -.23    -.23     -.2
     -.2     -.2     -.2     -.2     -.2     -.2     -.2     -.2     -.2     -.2
     -.2     -.2     -.2     -.2     -.2     -.2     -.2     -.2     -.2     -.2
     -.2     -.2     -.2    -.14    -.14    -.14    -.14    -.14    -.14    -.14
    -.14    -.14    -.14    -.14    -.14    -.14    -.14    -.14    -.14    -.14
    -.14    -.14    -.14    -.14    -.14    -.14    -.14    -.25    -.25    -.25
    -.25    -.25    -.25    -.25    -.25    -.25    -.25    -.25    -.25    -.25
    -.25    -.25    -.25    -.25    -.25    -.25    -.25    -.25    -.25    -.25
    -.25    -.08    -.08    -.08    -.08    -.08    -.08    -.08    -.08    -.08
    -.08    -.08    -.08    -.08    -.08    -.08    -.08    -.08    -.08    -.08
    -.08    -.08    -.08    -.08    -.08    -.06    -.06    -.06    -.06    -.06
    -.06    -.06    -.06    -.06    -.06    -.06    -.06    -.06    -.06    -.06
    -.06    -.06    -.06    -.06    -.06    -.06    -.06    -.06    -.06       0
       0       0       0       0       0       0       0       0       0       0
       0       0       0       0       0       0       0       0       0       0
       0       0       0       0       0       0       0       0       0       0
       0       0       0       0       0       0       0       0       0       0
       0       0       0       0       0       0       0       0       0       0
       0       0       0       0       0       0       0       0       0       0
       0       0       0       0       0       0       0       0       0       0
       0       0       0       0       0       0       0       0       0       0
       0       0       0       0       0       0       0       0       0       0
       0       0       0       0       0       0       0       0       0       0
       0       0       0       0       0       0       0       0       0       0
       0       0       0       0       0       0       0       0       0       0
       0       0       0       0       0       0       0       0       0       0
       0       0       0       0       0       0       0       0       0       0
       0       0       0       0       0       0       0       0       0       0
       0       0       0       0       0       0       0       0       0       0
       0       0       0       0       0       0       0       0       0       0
       0       0       0       0       0       0       0       0       0       0
       0       0       0       0       0       0       0       0       0       0
       0       0       0       0       0       0       0       0       0       0
       0       0       0       0       0       0       0       0       0       0
       0       0       0       0       0       0       0       0       0       0
       0       0       0       0       0       0       0       0       0       0
       0       0       0       0       0       0       0       0       0       0
       0       0       0       0       0       0       0       0       0       0
       0       0       0       0       0       0       0       0       0       0
       0       0       0       0       0       0       0       0       0       0
       0       0       0       0       0       0       0       0       0       0
       0       0       0       0       0       0       0       0       0       0
       0       0       0       0       0       0       0       0       0       0
       0       0       0       0       0       0       0       0       0       0
       0       0       0       0       0       0       0       0       0       0
       0       0       0       0       0       0       0       0       0       0
       0       0       0       0       0       0       0       0       0       0
       0       0       0       0       0       0       0       0       0       0
       0       0       0       0       0       0       0       0       0       0
       0       0       0       0       0       0       0       0       0       0
       0       0       0       0       0       0       0       0       0       0
       0       0       0    -.42    -.42    -.42    -.42    -.42    -.42    -.42
    -.42    -.42    -.42    -.42    -.42    -.42    -.42    -.42    -.42    -.42
    -.42    -.42    -.42    -.42    -.42    -.42    -.42    -.14    -.14    -.14
    -.14    -.14    -.14    -.14    -.14    -.14    -.14    -.14    -.14    -.14
    -.14    -.14    -.14    -.14    -.14    -.14    -.14    -.14    -.14    -.14
    -.14    -.08    -.08    -.08    -.08    -.08    -.08    -.08    -.08    -.08
    -.08    -.08    -.08    -.08    -.08    -.08    -.08    -.08    -.08    -.08
    -.08    -.08    -.08    -.08    -.08       0       0       0       0       0
       0       0       0       0       0       0       0       0       0       0
       0       0       0       0       0       0       0       0       0    -.11
    -.11    -.11    -.11    -.11    -.11    -.11    -.11    -.11    -.11    -.11
    -.11    -.11    -.11    -.11    -.11    -.11    -.11    -.11    -.11    -.11
    -.11    -.11    -.11    -.03    -.03    -.03    -.03    -.03    -.03    -.03
    -.03    -.03    -.03    -.03    -.03    -.03    -.03    -.03    -.03    -.03
    -.03    -.03    -.03    -.03    -.03    -.03    -.03    -.11    -.11    -.11
    -.11    -.11    -.11    -.11    -.11    -.11    -.11    -.11    -.11    -.11
    -.11    -.11    -.11    -.11    -.11    -.11    -.11    -.11    -.11    -.11
    -.11    -.06    -.06    -.06    -.06    -.06    -.06    -.06    -.06    -.06
    -.06    -.06    -.06    -.06    -.06    -.06    -.06    -.06    -.06    -.06
    -.06    -.06    -.06    -.06    -.06    -.08    -.08    -.08    -.08    -.08
    -.08    -.08    -.08    -.08    -.08    -.08    -.08    -.08    -.08    -.08
    -.08    -.08    -.08    -.08    -.08    -.08    -.08    -.08    -.08    -.03
    -.03    -.03    -.03    -.03    -.03    -.03    -.03    -.03    -.03    -.03
    -.03    -.03    -.03    -.03    -.03    -.03    -.03    -.03    -.03    -.03
    -.03    -.03    -.03    -.08    -.08    -.08    -.08    -.08    -.08    -.08
    -.08    -.08    -.08    -.08    -.08    -.08    -.08    -.08    -.08    -.08
    -.08    -.08    -.08    -.08    -.08    -.08    -.08    -.03    -.03    -.03
    -.03    -.03    -.03    -.03    -.03    -.03    -.03    -.03    -.03    -.03
    -.03    -.03    -.03    -.03    -.03    -.03    -.03    -.03    -.03    -.03
    -.03       0       0       0       0       0       0       0       0       0
       0       0       0       0       0       0       0       0       0       0
       0       0       0       0       0       0       0       0       0       0
       0       0       0       0       0       0       0       0       0       0
       0       0       0       0       0       0       0       0       0    -.14
    -.14    -.14    -.14    -.14    -.14    -.14    -.14    -.14    -.14    -.14
    -.14    -.14    -.14    -.14    -.14    -.14    -.14    -.14    -.14    -.14
    -.14    -.14    -.14
DSS File=LT_BCs_daily_hourly_mean_flows_m.dss
DSS Path=/NORTHBAY AQUEDUCT (EXPORTS)/3_NBAQ/FLOW/01OCT1996/1HOUR/DWR_DAYFLOW/
Use DSS=False
Use Fixed Start Time=False
Fixed Start Date/Time=,
Is Critical Boundary=False
Critical Boundary Flow=
Boundary Location=American        ,A               ,1.893   ,        ,                ,                ,                ,                                
Interval=1HOUR
Lateral Inflow Hydrograph= 0 
DSS File=LT_BCs_daily_hourly_mean_flows_m.dss
DSS Path=/STEELHEAD CREEK/SHC/FLOW/01JAN1996/1DAY/GAUGED + ESTIMATED/
Use DSS=True
Use Fixed Start Time=False
Fixed Start Date/Time=,
Is Critical Boundary=False
Critical Boundary Flow=
Boundary Location=Sacramento      ,NCC to American ,80400   ,        ,                ,                ,                ,                                
Elev Controlled Gate=Gates 1-6   ,,,0.02032,0.00508,1.829,0,0, 1 
Elev Controlled Gate Ref=8.382,7.52,Sacramento      ,Amer to Sutt Sl ,73137.26,                
Elev Controlled Gate Stage Diff=,,                ,                ,        ,                ,                ,                ,        ,                
Elev Controlled Gate=Gates 7-13  ,,,0.02032,0.00508,1.829,0,0, 1 
Elev Controlled Gate Ref=8.447,7.534,Sacramento      ,Amer to Sutt Sl ,73137.26,                
Elev Controlled Gate Stage Diff=,,                ,                ,        ,                ,                ,                ,        ,                
Elev Controlled Gate=Gates 14-20 ,,,0.02032,0.00508,1.829,0,0, 1 
Elev Controlled Gate Ref=8.516,7.549,Sacramento      ,Amer to Sutt Sl ,73137.26,                
Elev Controlled Gate Stage Diff=,,                ,                ,        ,                ,                ,                ,        ,                
Elev Controlled Gate=Gates 21-27 ,,,0.02032,0.00508,1.829,0,0, 1 
Elev Controlled Gate Ref=8.578,7.563,Sacramento      ,Amer to Sutt Sl ,73137.26,                
Elev Controlled Gate Stage Diff=,,                ,                ,        ,                ,                ,                ,        ,                
Elev Controlled Gate=Gates 28-34 ,,,0.02032,0.00508,1.829,0,0, 1 
Elev Controlled Gate Ref=8.643,7.577,Sacramento      ,Amer to Sutt Sl ,73137.26,                
Elev Controlled Gate Stage Diff=,,                ,                ,        ,                ,                ,                ,        ,                
Elev Controlled Gate=Gates 35-41 ,,,0.02032,0.00508,1.829,0,0, 1 
Elev Controlled Gate Ref=8.709,7.591,Sacramento      ,Amer to Sutt Sl ,73137.26,                
Elev Controlled Gate Stage Diff=,,                ,                ,        ,                ,                ,                ,        ,                
Elev Controlled Gate=Gates 42-48 ,,,0.02032,0.00508,1.829,0,0, 1 
Elev Controlled Gate Ref=8.839,7.62,Sacramento      ,Amer to Sutt Sl ,73137.26,                
Elev Controlled Gate Stage Diff=,,                ,                ,        ,                ,                ,                ,        ,                
Boundary Location=Elk Slough      ,To Sutter       ,15304.38,        ,                ,                ,                ,                                
Interval=1YEAR
Flow Hydrograph= 2 
       1       1
DSS Path=
Use DSS=False
Use Fixed Start Time=False
Fixed Start Date/Time=,
Is Critical Boundary=False
Critical Boundary Flow=
Boundary Location=CalhounCut      ,AA              ,2400.371,        ,                ,                ,                ,                                
Interval=1HOUR
Flow Hydrograph= 0 
DSS File=LT_BCs_daily_hourly_mean_flows_m.dss
DSS Path=/CALHOUN CUT/CCH/FLOW/01JAN1996/1DAY/ESTIMATED/
Use DSS=True
Use Fixed Start Time=False
Fixed Start Date/Time=,
Is Critical Boundary=False
Critical Boundary Flow=
Boundary Location=HassSlough      ,To Cache        ,4682.563,        ,                ,                ,                ,                                
Interval=1YEAR
Flow Hydrograph= 2 
       1       1
DSS Path=
Use DSS=False
Use Fixed Start Time=False
Fixed Start Date/Time=,
Is Critical Boundary=False
Critical Boundary Flow=
Boundary Location=HassSlough      ,To Cache        ,3475.33*,        ,                ,                ,                ,                                
Interval=1DAY
Lateral Inflow Hydrograph= 0 
DSS File=LT_BCs_daily_hourly_mean_flows_m.dss
DSS Path=/HAAS SLOUGH/HAAS/FLOW/01JAN1996/1DAY/ESTIMATED/
Use DSS=True
Use Fixed Start Time=False
Fixed Start Date/Time=,
Is Critical Boundary=False
Critical Boundary Flow=
Boundary Location=American        ,A               ,22.195  ,        ,                ,                ,                ,                                
Interval=15MIN
Flow Hydrograph= 2977 
    1110    1130    1110    1100    1100    1100    1100    1110    1110    1100
    1090    1100    1110    1110    1100    1110    1110    1130    1130    1130
    1110    1110    1130    1110    1110    1110    1110    1100    1100    1100
    1100    1090    1080    1080    1080    1080    1090    1110    1100    1090
    1100    1110    1130    1110    1090    1100    1110    1100    1100    1130
    1110    1110    1130    1130    1130    1130    1130    1140    1130    1110
    1110    1100    1130    1110    1130    1100    1110    1110    1110    1100
    1100    1100    1100    1110    1130    1130    1130    1110    1100    1100
    1100    1110    1110    1130    1100    1110    1130    1110    1110    1130
    1100    1080    1090    1110    1100    1090    1090    1100    1100    1090
    1100    1110    1110    1110    1100    1110    1130    1100    1100    1100
    1100    1110    1110    1110    1130    1130    1130    1110    1100    1100
    1100    1110    1090    1100    1100    1130    1100    1090    1130    1140
    1135    1130    1110    1080    1080    1080    1090    1080    1090    1090
    1080    1130    1160    1190    1210    1230    1240    1240    1240    1240
    1240    1240    1240    1240    1240    1240    1240    1240    1240    1240
    1240    1240    1240    1240    1240    1240    1230    1240    1240    1240
    1240    1240    1240    1240    1240    1240    1240    1240    1130    1060
    1160    1160    1170    1160    1160    1180    1190    1190    1220    1230
    1210    1230    1240    1230    1230    1220    1240    1220    1220    1220
    1220    1230    1240    1260    1270    1260    1270    1260    1260    1280
    1290    1270    1270    1230    1240    1260    1230    1240    1220    1230
    1230    1230    1230    1280    1270    1240    1240    1260    1280    1260
    1240    1270    1270    1270    1270    1260    1260    1280    1280    1280
    1280    1260    1260    1280    1290    1280    1280    1280    1270    1270
    1270    1260    1260    1280    1280    1280    1280    1280    1280    1280
    1280    1270    1270    1280    1280    1280    1270    1260    1260    1270
    1270    1270    1270    1280    1280    1270    1280    1270    1260    1260
    1280    1280    1280    1270    1280    1280    1280    1270    1260    1280
    1280    1260    1260    1280    1280    1260    1260    1260    1260    1260
    1260    1260    1270    1270    1260    1280    1260    1260    1260    1260
    1260    1260    1270    1260    1270    1280    1280    1280    1260    1280
    1280    1280    1280    1270    1270    1260    1280    1290    1280    1270
    1270    1260    1260    1260    1260    1260    1290    1290    1290    1290
    1280    1280    1280    1280    1280    1280    1280    1280    1280    1280
    1280    1290    1290    1290    1290    1290    1290    1290    1290    1290
    1290    1290    1290    1290    1280    1280    1280    1280    1280    1290
    1290    1280    1260    1260    1270    1260    1280    1270    1240    1240
    1280    1280    1290    1270    1290    1290    1290    1280    1290    1260
    1260    1280    1290    1280    1270    1280    1280    1270    1280    1270
    1280    1270    1280    1290    1280    1280    1290    1290    1280    1280
    1280    1280    1270    1270    1270    1290    1280    1270    1270    1280
    1270    1270    1270    1270    1270    1280    1260    1280    1290    1270
    1260    1270    1260    1270    1290    1280    1260    1280    1190    1140
    1130    1130    1130    1170    1170    1160    1190    1210    1210    1210
    1240    1240    1240    1210    1240    1240    1240    1240    1240    1200
    1220    1220    1220    1240    1240    1240    1210    1210    1220    1230
    1230    1220    1220    1220    1220    1220    1220    1220    1200    1220
    1240    1230    1230    1230    1220    1220    1220    1220    1210    1220
    1220    1210    1210    1220    1230    1230    1220    1210    1230    1210
    1220    1230    1210    1220    1210    1200    1210    1210    1210    1210
    1210    1200    1230    1240    1260    1220    1240    1220    1210    1200
    1200    1210    1210    1210    1210    1220    1220    1210    1220    1220
    1210    1220    1220    1220    1230    1240    1210    1220    1260    1230
    1240    1220    1230    1230    1210    1210    1230    1200    1210    1200
    1220    1230    1230    1220    1220    1220    1220    1230    1230    1220
    1220    1230    1230    1220    1220    1220    1220    1200    1220    1240
    1230    1210    1230    1230    1210    1220    1220    1220    1210    1210
    1210    1230    1230    1210    1210    1210    1210    1210    1210    1210
    1220    1230    1220    1200    1230    1230    1210    1220    1270    1220
    1190    1220    1220    1210    1210    1210    1200    1180    1210    1210
    1190    1220    1230    1220    1210    1200    1190    1220    1240    1240
    1260    1210    1210    1220    1180    1200    1210    1220    1220    1210
    1210    1200    1200    1210    1200    1190    1230    1220    1210    1220
    1210    1220    1220    1200    1210    1200    1220    1210    1200    1190
    1210    1240    1260    1240    1220    1210    1200    1200    1200    1210
    1210    1260    1240    1230    1230    1260    1260    1220    1220    1230
    1230    1230    1220    1270    1240    1230    1220    1220    1220    1200
    1200    1210    1240    1260    1260    1240    1290    1230    1210    1220
    1240    1240    1230    1210    1230    1220    1220    1200    1230    1260
    1240    1240    1240    1220    1210    1230    1230    1230    1230    1230
    1230    1240    1230    1240    1220    1200    1230    1230    1230    1240
    1230    1210    1220    1230    1220    1200    1220    1230    1230    1240
    1260    1270    1240    1200    1210    1260    1260    1230    1240    1240
    1260    1240    1290    1260    1230    1220    1210    1200    1220    1240
    1240    1230    1230    1230    1230    1230    1230    1230    1230    1230
    1230    1240    1230    1220    1230    1240    1230    1210    1220    1230
    1220    1220    1240    1240    1240    1230    1230    1290    1240    1220
    1240    1240    1240    1260    1240    1210    1220    1240    1290    1210
    1220    1230    1230    1220    1210    1200    1200    1210    1220    1230
    1240    1240    1220    1210    1220    1230    1210    1210    1220    1290
    1240    1220    1210    1220    1220    1230    1230    1230    1220    1210
    1220    1230    1230    1220    1210    1210    1220    1210    1200    1200
    1200    1210    1220    1220    1230    1240    1240    1220    1210    1210
    1210    1210    1210    1220    1240    1260    1260    1240    1220    1230
    1230    1230    1220    1220    1230    1230    1230    1240    1220    1220
    1230    1220    1210    1210    1210    1220    1230    1220    1230    1240
    1230    1220    1210    1210    1220    1220    1230    1240    1230    1210
    1210    1210    1220    1230    1240    1240    1230    1230    1260    1260
    1260    1270    1240    1230    1260    1260    1260    1270    1260    1260
    1240    1230    1240    1260    1240    1260    1260    1240    1230    1240
    1240    1230    1240    1240    1220    1220    1240    1240    1230    1240
    1210    1220    1230    1260    1260    1230    1240    1260    1230    1220
    1290    1270    1230    1230    1240    1220    1210    1230    1230    1230
    1220    1230    1230    1210    1220    1240    1220    1210    1210    1230
    1230    1220    1220    1230    1200    1220    1220    1220    1220    1210
    1260    1270    1260    1260    1230    1230    1220    1220    1240    1230
    1220    1210    1220    1270    1240    1220    1230    1220    1230    1230
    1240    1240    1260    1260    1230    1210    1220    1240    1230    1200
    1210    1220    1220    1220    1230    1230    1230    1230    1240    1220
    1210    1220    1220    1210    1210    1220    1230    1280    1790    2190
    2220    2260    3020    3210    3210    3220    3270    3350    3420    3420
    3420    3420    3440    3460    3500    3470    3500    3490    3500    3490
    3500    3490    3500    3500    3500    3490    3490    3500    3500    3490
    3500    3520    3470    3470    3490    3490    3490    3460    3470    3520
    3500    3520    3500    3500    3490    3500    3500    3520    3500    3470
    3470    3500    3490    3470    3500    3490    3540    3500    3460    3420
    3420    3420    3420    3410    3410    3420    3380    3420    3390    3460
    3390    3440    3410    3410    3410    3380    3410    3410    3540    3700
    3680    3620    3540    3520    3520    3540    3540    3540    3540    3540
    3540    3540    3540    3540    3540    3540    3540    3540    3540    3540
    3540    3540    3540    3540    3540    3540    3540    3540    3540    3540
    3540    3540    3540    3520    3520    3520    3520    3520    3520    3520
    3540    3540    3540    3540    3540    3540    3550    3550    3550    3550
    3550    3550    3550    3550    3550    3550    3540    3550    3540    3540
    3540    3540    3520    3520    3520    3520    3520    3520    3520    3500
    3500    3500    3500    3500    3500    3500    3500    3490    3490    3490
    3490    3490    3490    3490    3490    3490    3490    3490    3490    3490
    3490    3490    3490    3500    3500    3500    3500    3520    3790    4520
    4540    4500    5110    5830    5890    5950    6010    4610    3210    5710
    5970    5970    5970    5970    5970    5970    5950    5950    5950    5950
    5950    5930    5930    5930    5930    5910    5910    5910    5890    5890
    5890    5870    5890    5890    5910    5910    5910    5930    5930    5950
    5970    5970    5970    5970    5970    5970    5990    5990    6010    6010
    6010    6010    6010    6010    6010    5990    5990    5990    5990    5990
    5990    5990    5990    5990    5990    5990    5990    5990    5990    5990
    5990    5990    5990    5990    5990    5990    5990    5990    5990    5990
    5990    5990    5990    5990    5990    5990    5990    5990    6010    6010
    6010    6010    6010    6010    6010    6340    6780    6950    6970    7690
    8000    8040    8380    9620    9930   10100   10100   10100   10200   10200
   10200   10200   10200   10200   10200   10200   10500   12000   12600   12700
   13400   15200   15500   15600   15600   15300   15000   14900   14900   14900
   15000   15000   15000   15000   15000   15000   15000   15000   15000   15000
   15000   15000   15000   15000   15000   15000   15000   15000   15000   15000
   15000   15000   15000   15000   15000   15000   15000   15000   15000   15000
   14900   15000   14900   14900   14900   14900   14900   14900   14900   14900
   14800   14800   14800   14800   14800   14800   14800   14800   14800   14800
   14800   14800   14800   14800   14800   14800   14900   15000   15000   15000
   15000   15000   16100   18300   19600   21800   24500   24900   24900   25500
   28000   29800   30200   31200   33400   34700   35500   35600   35600   35500
   35500   35500   35500   35500   35500   35400   35400   35500   35400   35400