Flow Title=2006 Flood Event BC Mid Day
Program Version=5.03
Use Restart= 0 
Restart Filename=
Initial Flow Loc=American        ,A               ,22.195  ,21.75
Initial Flow Loc=American        ,A               ,0.191   ,11.072
Initial Flow Loc=Barker Slough   ,Small A         ,2687.425,0.19
Initial Flow Loc=Cache Slough    ,US to Hass      ,2275.979,1
Initial Flow Loc=Cache Slough    ,Hass to 2D      ,19883.95,2
Initial Flow Loc=CalhounCut      ,AA              ,2400.371,4.32
Initial Flow Loc=DeepWaterShipCha,A               ,34556.03,1
Initial Flow Loc=DeltaCross      ,DCC             ,1071.35 ,1
Initial Flow Loc=Elk Slough      ,To Sutter       ,15304.38,1
Initial Flow Loc=FeatherRiver    ,A               ,46191.73,65.1
Initial Flow Loc=FeatherRiver    ,A               ,12736   ,52.22
Initial Flow Loc=Georgianna      ,Georg to Sac    ,1718.89 ,1
Initial Flow Loc=HassSlough      ,To Cache        ,4682.563,1
Initial Flow Loc=Lindsey         ,Barker to 2D    ,9850.279,11.185
Initial Flow Loc=Miner Slough    ,Sutter to 2D    ,10647.88,82.3375
Initial Flow Loc=NCC             ,A               ,3509.071,13.564
Initial Flow Loc=Sacramento      ,Feather to NCC  ,1442.33 ,322.68
Initial Flow Loc=Sacramento      ,NCC to American ,106947.8,341.8
Initial Flow Loc=Sacramento      ,NCC to American ,80400   ,357.1525
Initial Flow Loc=Sacramento      ,Amer to Sutt Sl ,74027.38,372.505
Initial Flow Loc=Sacramento      ,Sutt to Steam   ,31893.07,450.415
Initial Flow Loc=Sacramento      ,Steam to DCC    ,29339.4 ,254.52
Initial Flow Loc=Sacramento      ,DCC to Georg    ,20776.3 ,318.4895
Initial Flow Loc=Sacramento      ,Georg to 2D     ,19783.05,347.3295
Initial Flow Loc=Sacramento      ,Wilkins - A     ,60311.51,40.9325
Initial Flow Loc=Steamboat Slough,Sac to Sutter   ,18671.58,203.56
Initial Flow Loc=Steamboat Slough,Sutter to 2D    ,11481.18,915.46
Initial Flow Loc=Sutter Slough   ,Sac to Elk      ,10711.84,574.74
Initial Flow Loc=Sutter Slough   ,Elk to Miner    ,9830.021,516.38
Initial Flow Loc=Sutter Slough   ,Miner to Steam  ,3768.972,303.9
Initial Storage Elev=Sutter Bypass   ,6.075
Initial Storage Elev=Yolo Bypass     ,1.33
Boundary Location=NCC             ,A               ,3509.071,        ,                ,                ,                ,                
Interval=1HOUR
Flow Hydrograph= 0 
DSS File=LT_BCs_daily_hourly_mean_flows_m_t_shift.dss
DSS Path=/NATOMAS CROSS CANAL/NCC/FLOW MID DAY/01JAN1996/1DAY/ESTIMATED/
Use DSS=True
Use Fixed Start Time=False
Fixed Start Date/Time=,
Is Critical Boundary=False
Critical Boundary Flow=
Boundary Location=Sacramento      ,Wilkins - A     ,60311.51,        ,                ,                ,                ,                
Interval=1HOUR
Flow Hydrograph= 0 
DSS File=LT_BCs_daily_hourly_mean_flows_m_t_shift.dss
DSS Path=/SACRAMENTO R BL WILKINS SLOUGH/GRIMES CA/FLOW MID DAY/01JAN1996/1DAY/USGS/
Use DSS=True
Use Fixed Start Time=False
Fixed Start Date/Time=,
Is Critical Boundary=False
Critical Boundary Flow=
Boundary Location=Sacramento      ,Wilkins - A     ,15797.7*,        ,                ,                ,                ,                
Interval=1HOUR
Lateral Inflow Hydrograph= 0 
DSS File=LT_BCs_daily_hourly_mean_flows_m_t_shift.dss
DSS Path=/KNIGHTS LANDING OUTFALL GATES/4_KLOG/FLOW MID DAY/01JAN1996/1DAY/DWR_WDL + ESTIMATED/
Use DSS=True
Use Fixed Start Time=False
Fixed Start Date/Time=,
Is Critical Boundary=False
Critical Boundary Flow=
Boundary Location=Barker Slough   ,Small A         ,2687.425,        ,                ,                ,                ,                
Interval=1DAY
Flow Hydrograph= 0 
DSS File=LT_BCs_daily_hourly_mean_flows_m_t_shift.dss
DSS Path=/CAMPBELL LAKE/CAMP/FLOW MID DAY/01JAN1996/1DAY/ESTIMATED/
Use DSS=True
Use Fixed Start Time=False
Fixed Start Date/Time=,
Is Critical Boundary=False
Critical Boundary Flow=
Boundary Location=Barker Slough   ,Small A         ,2574.70*,        ,                ,                ,                ,                
Interval=1HOUR
Lateral Inflow Hydrograph= 1777 
       1     .56     .12    -.32    -.76    -1.2   -1.64   -1.64   -1.64   -1.64
   -1.64   -1.64   -1.64   -1.64   -1.64   -1.64   -1.64   -1.64   -1.64   -1.64
   -1.64   -1.64   -1.64   -1.64   -1.64   -1.53   -1.53   -1.53   -1.53   -1.53
   -1.53   -1.53   -1.53   -1.53   -1.53   -1.53   -1.53   -1.53   -1.53   -1.53
   -1.53   -1.53   -1.53   -1.53   -1.53   -1.53   -1.53   -1.53   -1.53   -1.44
   -1.44   -1.44   -1.44   -1.44   -1.44   -1.44   -1.44   -1.44   -1.44   -1.44
   -1.44   -1.44   -1.44   -1.44   -1.44   -1.44   -1.44   -1.44   -1.44   -1.44
   -1.44   -1.44   -1.44   -1.19   -1.19   -1.19   -1.19   -1.19   -1.19   -1.19
   -1.19   -1.19   -1.19   -1.19   -1.19   -1.19   -1.19   -1.19   -1.19   -1.19
   -1.19   -1.19   -1.19   -1.19   -1.19   -1.19   -1.19   -1.19   -1.19   -1.19
   -1.19   -1.19   -1.19   -1.19   -1.19   -1.19   -1.19   -1.19   -1.19   -1.19
   -1.19   -1.19   -1.19   -1.19   -1.19   -1.19   -1.19   -1.19   -1.19   -1.19
   -1.19    -.96    -.96    -.96    -.96    -.96    -.96    -.96    -.96    -.96
    -.96    -.96    -.96    -.96    -.96    -.96    -.96    -.96    -.96    -.96
    -.96    -.96    -.96    -.96    -.96    -.65    -.65    -.65    -.65    -.65
    -.65    -.65    -.65    -.65    -.65    -.65    -.65    -.65    -.65    -.65
    -.65    -.65    -.65    -.65    -.65    -.65    -.65    -.65    -.65    -.79
    -.79    -.79    -.79    -.79    -.79    -.79    -.79    -.79    -.79    -.79
    -.79    -.79    -.79    -.79    -.79    -.79    -.79    -.79    -.79    -.79
    -.79    -.79    -.79    -.62    -.62    -.62    -.62    -.62    -.62    -.62
    -.62    -.62    -.62    -.62    -.62    -.62    -.62    -.62    -.62    -.62
    -.62    -.62    -.62    -.62    -.62    -.62    -.62    -.65    -.65    -.65
    -.65    -.65    -.65    -.65    -.65    -.65    -.65    -.65    -.65    -.65
    -.65    -.65    -.65    -.65    -.65    -.65    -.65    -.65    -.65    -.65
    -.65    -.57    -.57    -.57    -.57    -.57    -.57    -.57    -.57    -.57
    -.57    -.57    -.57    -.57    -.57    -.57    -.57    -.57    -.57    -.57
    -.57    -.57    -.57    -.57    -.57    -.62    -.62    -.62    -.62    -.62
    -.62    -.62    -.62    -.62    -.62    -.62    -.62    -.62    -.62    -.62
    -.62    -.62    -.62    -.62    -.62    -.62    -.62    -.62    -.62    -.62
    -.62    -.62    -.62    -.62    -.62    -.62    -.62    -.62    -.62    -.62
    -.62    -.62    -.62    -.62    -.62    -.62    -.62    -.62    -.62    -.62
    -.62    -.62    -.62    -.68    -.68    -.68    -.68    -.68    -.68    -.68
    -.68    -.68    -.68    -.68    -.68    -.68    -.68    -.68    -.68    -.68
    -.68    -.68    -.68    -.68    -.68    -.68    -.68    -.65    -.65    -.65
    -.65    -.65    -.65    -.65    -.65    -.65    -.65    -.65    -.65    -.65
    -.65    -.65    -.65    -.65    -.65    -.65    -.65    -.65    -.65    -.65
    -.65    -.71    -.71    -.71    -.71    -.71    -.71    -.71    -.71    -.71
    -.71    -.71    -.71    -.71    -.71    -.71    -.71    -.71    -.71    -.71
    -.71    -.71    -.71    -.71    -.71    -.99    -.99    -.99    -.99    -.99
    -.99    -.99    -.99    -.99    -.99    -.99    -.99    -.99    -.99    -.99
    -.99    -.99    -.99    -.99    -.99    -.99    -.99    -.99    -.99    -.74
    -.74    -.74    -.74    -.74    -.74    -.74    -.74    -.74    -.74    -.74
    -.74    -.74    -.74    -.74    -.74    -.74    -.74    -.74    -.74    -.74
    -.74    -.74    -.74    -.76    -.76    -.76    -.76    -.76    -.76    -.76
    -.76    -.76    -.76    -.76    -.76    -.76    -.76    -.76    -.76    -.76
    -.76    -.76    -.76    -.76    -.76    -.76    -.76    -.48    -.48    -.48
    -.48    -.48    -.48    -.48    -.48    -.48    -.48    -.48    -.48    -.48
    -.48    -.48    -.48    -.48    -.48    -.48    -.48    -.48    -.48    -.48
    -.48    -.42    -.42    -.42    -.42    -.42    -.42    -.42    -.42    -.42
    -.42    -.42    -.42    -.42    -.42    -.42    -.42    -.42    -.42    -.42
    -.42    -.42    -.42    -.42    -.42    -.23    -.23    -.23    -.23    -.23
    -.23    -.23    -.23    -.23    -.23    -.23    -.23    -.23    -.23    -.23
    -.23    -.23    -.23    -.23    -.23    -.23    -.23    -.23    -.23    -.28
    -.28    -.28    -.28    -.28    -.28    -.28    -.28    -.28    -.28    -.28
    -.28    -.28    -.28    -.28    -.28    -.28    -.28    -.28    -.28    -.28
    -.28    -.28    -.28    -.23    -.23    -.23    -.23    -.23    -.23    -.23
    -.23    -.23    -.23    -.23    -.23    -.23    -.23    -.23    -.23    -.23
    -.23    -.23    -.23    -.23    -.23    -.23    -.23    -.17    -.17    -.17
    -.17    -.17    -.17    -.17    -.17    -.17    -.17    -.17    -.17    -.17
    -.17    -.17    -.17    -.17    -.17    -.17    -.17    -.17    -.17    -.17
    -.17    -.31    -.31    -.31    -.31    -.31    -.31    -.31    -.31    -.31
    -.31    -.31    -.31    -.31    -.31    -.31    -.31    -.31    -.31    -.31
    -.31    -.31    -.31    -.31    -.31    -.14    -.14    -.14    -.14    -.14
    -.14    -.14    -.14    -.14    -.14    -.14    -.14    -.14    -.14    -.14
    -.14    -.14    -.14    -.14    -.14    -.14    -.14    -.14    -.14    -.23
    -.23    -.23    -.23    -.23    -.23    -.23    -.23    -.23    -.23    -.23
    -.23    -.23    -.23    -.23    -.23    -.23    -.23    -.23    -.23    -.23
    -.23    -.23    -.23    -.14    -.14    -.14    -.14    -.14    -.14    -.14
    -.14    -.14    -.14    -.14    -.14    -.14    -.14    -.14    -.14    -.14
    -.14    -.14    -.14    -.14    -.14    -.14    -.14    -.14    -.14    -.14
    -.14    -.14    -.14    -.14    -.14    -.14    -.14    -.14    -.14    -.14
    -.14    -.14    -.14    -.14    -.14    -.14    -.14    -.14    -.14    -.14
    -.14    -.31    -.31    -.31    -.31    -.31    -.31    -.31    -.31    -.31
    -.31    -.31    -.31    -.31    -.31    -.31    -.31    -.31    -.31    -.31
    -.31    -.31    -.31    -.31    -.31    -.31    -.31    -.31    -.31    -.31
    -.31    -.31    -.31    -.31    -.31    -.31    -.31    -.31    -.31    -.31
    -.31    -.31    -.31    -.31    -.31    -.31    -.31    -.31    -.31    -.31
    -.31    -.31    -.31    -.31    -.31    -.31    -.31    -.31    -.31    -.31
    -.31    -.31    -.31    -.31    -.31    -.31    -.31    -.31    -.31    -.31
    -.31    -.31    -.31    -.25    -.25    -.25    -.25    -.25    -.25    -.25
    -.25    -.25    -.25    -.25    -.25    -.25    -.25    -.25    -.25    -.25
    -.25    -.25    -.25    -.25    -.25    -.25    -.25    -.28    -.28    -.28
    -.28    -.28    -.28    -.28    -.28    -.28    -.28    -.28    -.28    -.28
    -.28    -.28    -.28    -.28    -.28    -.28    -.28    -.28    -.28    -.28
    -.28    -.28    -.28    -.28    -.28    -.28    -.28    -.28    -.28    -.28
    -.28    -.28    -.28    -.28    -.28    -.28    -.28    -.28    -.28    -.28
    -.28    -.28    -.28    -.28    -.28    -.31    -.31    -.31    -.31    -.31
    -.31    -.31    -.31    -.31    -.31    -.31    -.31    -.31    -.31    -.31
    -.31    -.31    -.31    -.31    -.31    -.31    -.31    -.31    -.31    -.25
    -.25    -.25    -.25    -.25    -.25    -.25    -.25    -.25    -.25    -.25
    -.25    -.25    -.25    -.25    -.25    -.25    -.25    -.25    -.25    -.25
    -.25    -.25    -.25    -.28    -.28    -.28    -.28    -.28    -.28    -.28
    -.28    -.28    -.28    -.28    -.28    -.28    -.28    -.28    -.28    -.28
    -.28    -.28    -.28    -.28    -.28    -.28    -.28    -.23    -.23    -.23
    -.23    -.23    -.23    -.23    -.23    -.23    -.23    -.23    -.23    -.23
    -.23    -.23    -.23    -.23    -.23    -.23    -.23    -.23    -.23    -.23
    -.23    -.23    -.23    -.23    -.23    -.23    -.23    -.23    -.23    -.23
    -.23    -.23    -.23    -.23    -.23    -.23    -.23    -.23    -.23    -.23
    -.23    -.23    -.23    -.23    -.23     -.2     -.2     -.2     -.2     -.2
     -.2     -.2     -.2     -.2     -.2     -.2     -.2     -.2     -.2     -.2
     -.2     -.2     -.2     -.2     -.2     -.2     -.2     -.2     -.2    -.34
    -.34    -.34    -.34    -.34    -.34    -.34    -.34    -.34    -.34    -.34
    -.34    -.34    -.34    -.34    -.34    -.34    -.34    -.34    -.34    -.34
    -.34    -.34    -.34    -.31    -.31    -.31    -.31    -.31    -.31    -.31
    -.31    -.31    -.31    -.31    -.31    -.31    -.31    -.31    -.31    -.31
    -.31    -.31    -.31    -.31    -.31    -.31    -.31    -.25    -.25    -.25
    -.25    -.25    -.25    -.25    -.25    -.25    -.25    -.25    -.25    -.25
    -.25    -.25    -.25    -.25    -.25    -.25    -.25    -.25    -.25    -.25
    -.25    -.28    -.28    -.28    -.28    -.28    -.28    -.28    -.28    -.28
    -.28    -.28    -.28    -.28    -.28    -.28    -.28    -.28    -.28    -.28
    -.28    -.28    -.28    -.28    -.28    -.28    -.28    -.28    -.28    -.28
    -.28    -.28    -.28    -.28    -.28    -.28    -.28    -.28    -.28    -.28
    -.28    -.28    -.28    -.28    -.28    -.28    -.28    -.28    -.28    -.23
    -.23    -.23    -.23    -.23    -.23    -.23    -.23    -.23    -.23    -.23
    -.23    -.23    -.23    -.23    -.23    -.23    -.23    -.23    -.23    -.23
    -.23    -.23    -.23    -.28    -.28    -.28    -.28    -.28    -.28    -.28
    -.28    -.28    -.28    -.28    -.28    -.28    -.28    -.28    -.28    -.28
    -.28    -.28    -.28    -.28    -.28    -.28    -.28    -.31    -.31    -.31
    -.31    -.31    -.31    -.31    -.31    -.31    -.31    -.31    -.31    -.31
    -.31    -.31    -.31    -.31    -.31    -.31    -.31    -.31    -.31    -.31
    -.31    -.28    -.28    -.28    -.28    -.28    -.28    -.28    -.28    -.28
    -.28    -.28    -.28    -.28    -.28    -.28    -.28    -.28    -.28    -.28
    -.28    -.28    -.28    -.28    -.28    -.25    -.25    -.25    -.25    -.25
    -.25    -.25    -.25    -.25    -.25    -.25    -.25    -.25    -.25    -.25
    -.25    -.25    -.25    -.25    -.25    -.25    -.25    -.25    -.25     -.2
     -.2     -.2     -.2     -.2     -.2     -.2     -.2     -.2     -.2     -.2
     -.2     -.2     -.2     -.2     -.2     -.2     -.2     -.2     -.2     -.2
     -.2     -.2     -.2    -.34    -.34    -.34    -.34    -.34    -.34    -.34
    -.34    -.34    -.34    -.34    -.34    -.34    -.34    -.34    -.34    -.34
    -.34    -.34    -.34    -.34    -.34    -.34    -.34    -.23    -.23    -.23
    -.23    -.23    -.23    -.23    -.23    -.23    -.23    -.23    -.23    -.23
    -.23    -.23    -.23    -.23    -.23    -.23    -.23    -.23    -.23    -.23
    -.23    -.31    -.31    -.31    -.31    -.31    -.31    -.31    -.31    -.31
    -.31    -.31    -.31    -.31    -.31    -.31    -.31    -.31    -.31    -.31
    -.31    -.31    -.31    -.31    -.31    -.28    -.28    -.28    -.28    -.28
    -.28    -.28    -.28    -.28    -.28    -.28    -.28    -.28    -.28    -.28
    -.28    -.28    -.28    -.28    -.28    -.28    -.28    -.28    -.28    -.28
    -.28    -.28    -.28    -.28    -.28    -.28    -.28    -.28    -.28    -.28
    -.28    -.28    -.28    -.28    -.28    -.28    -.28    -.28    -.28    -.28
    -.28    -.28    -.28    -.23    -.23    -.23    -.23    -.23    -.23    -.23
    -.23    -.23    -.23    -.23    -.23    -.23    -.23    -.23    -.23    -.23
    -.23    -.23    -.23    -.23    -.23    -.23    -.23    -.34    -.34    -.34
    -.34    -.34    -.34    -.34    -.34    -.34    -.34    -.34    -.34    -.34
    -.34    -.34    -.34    -.34    -.34    -.34    -.34    -.34    -.34    -.34
    -.34    -.23    -.23    -.23    -.23    -.23    -.23    -.23    -.23    -.23
    -.23    -.23    -.23    -.23    -.23    -.23    -.23    -.23    -.23    -.23
    -.23    -.23    -.23    -.23    -.23    -.25    -.25    -.25    -.25    -.25
    -.25    -.25    -.25    -.25    -.25    -.25    -.25    -.25    -.25    -.25
    -.25    -.25    -.25    -.25    -.25    -.25    -.25    -.25    -.25    -.31
    -.31    -.31    -.31    -.31    -.31    -.31    -.31    -.31    -.31    -.31
    -.31    -.31    -.31    -.31    -.31    -.31    -.31    -.31    -.31    -.31
    -.31    -.31    -.31    -.28    -.28    -.28    -.28    -.28    -.28    -.28
    -.28    -.28    -.28    -.28    -.28    -.28    -.28    -.28    -.28    -.28
    -.28    -.28    -.28    -.28    -.28    -.28    -.28    -.25    -.25    -.25
    -.25    -.25    -.25    -.25    -.25    -.25    -.25    -.25    -.25    -.25
    -.25    -.25    -.25    -.25    -.25    -.25    -.25    -.25    -.25    -.25
    -.25    -.34    -.34    -.34    -.34    -.34    -.34    -.34    -.34    -.34
    -.34    -.34    -.34    -.34    -.34    -.34    -.34    -.34    -.34    -.34
    -.34    -.34    -.34    -.34    -.34    -.28    -.28    -.28    -.28    -.28
    -.28    -.28    -.28    -.28    -.28    -.28    -.28    -.28    -.28    -.28
    -.28    -.28    -.28    -.28    -.28    -.28    -.28    -.28    -.28    -.28
    -.28    -.28    -.28    -.28    -.28    -.28    -.28    -.28    -.28    -.28
    -.28    -.28    -.28    -.28    -.28    -.28    -.28    -.28    -.28    -.28
    -.28    -.28    -.28     -.2     -.2     -.2     -.2     -.2     -.2     -.2
     -.2     -.2     -.2     -.2     -.2     -.2     -.2     -.2     -.2     -.2
     -.2     -.2     -.2     -.2     -.2     -.2     -.2     -.2     -.2     -.2
     -.2     -.2     -.2     -.2     -.2     -.2     -.2     -.2     -.2     -.2
     -.2     -.2     -.2     -.2     -.2     -.2     -.2     -.2     -.2     -.2
     -.2    -.37    -.37    -.37    -.37    -.37    -.37    -.37    -.37    -.37
    -.37    -.37    -.37    -.37    -.37    -.37    -.37    -.37    -.37    -.37
    -.37    -.37    -.37    -.37    -.37    -.28    -.28    -.28    -.28    -.28
    -.28    -.28    -.28    -.28    -.28    -.28    -.28    -.28    -.28    -.28
    -.28    -.28    -.28    -.28    -.28    -.28    -.28    -.28    -.28    -.28
    -.28    -.28    -.28    -.28    -.28    -.28    -.28    -.28    -.28    -.28
    -.28    -.28    -.28    -.28    -.28    -.28    -.28    -.28    -.28    -.28
    -.28    -.28    -.28    -.28    -.28    -.28    -.28    -.28    -.28    -.28
    -.28    -.28    -.28    -.28    -.28    -.28    -.28    -.28    -.28    -.28
    -.28    -.28    -.28    -.28    -.28    -.28    -.28
DSS File=LT_BCs_daily_hourly_mean_flows_m.dss
DSS Path=/NORTHBAY AQUEDUCT (EXPORTS)/3_NBAQ/FLOW/01NOV1996/1HOUR/DWR_DAYFLOW/
Use DSS=False
Use Fixed Start Time=False
Fixed Start Date/Time=,
Is Critical Boundary=False
Critical Boundary Flow=
Boundary Location=American        ,A               ,1.893   ,        ,                ,                ,                ,                
Interval=1HOUR
Lateral Inflow Hydrograph= 0 
DSS File=LT_BCs_daily_hourly_mean_flows_m_t_shift.dss
DSS Path=/STEELHEAD CREEK/SHC/FLOW MID DAY/01JAN1996/1DAY/GAUGED + ESTIMATED/
Use DSS=True
Use Fixed Start Time=False
Fixed Start Date/Time=,
Is Critical Boundary=False
Critical Boundary Flow=
Boundary Location=Sacramento      ,NCC to American ,80400   ,        ,                ,                ,                ,                
Elev Controlled Gate=Gates 1-6   ,,,0.02032,0.00508,1.829,0,0, 1 
Elev Controlled Gate Ref=8.382,7.52,Sacramento      ,Amer to Sutt Sl ,73137.26,                
Elev Controlled Gate Stage Diff=,,                ,                ,        ,                ,                ,                ,        ,                
Elev Controlled Gate=Gates 7-13  ,,,0.02032,0.00508,1.829,0,0, 1 
Elev Controlled Gate Ref=8.447,7.534,Sacramento      ,Amer to Sutt Sl ,73137.26,                
Elev Controlled Gate Stage Diff=,,                ,                ,        ,                ,                ,                ,        ,                
Elev Controlled Gate=Gates 14-20 ,,,0.02032,0.00508,1.829,0,0, 1 
Elev Controlled Gate Ref=8.516,7.549,Sacramento      ,Amer to Sutt Sl ,73137.26,                
Elev Controlled Gate Stage Diff=,,                ,                ,        ,                ,                ,                ,        ,                
Elev Controlled Gate=Gates 21-27 ,,,0.02032,0.00508,1.829,0,0, 1 
Elev Controlled Gate Ref=8.578,7.563,Sacramento      ,Amer to Sutt Sl ,73137.26,                
Elev Controlled Gate Stage Diff=,,                ,                ,        ,                ,                ,                ,        ,                
Elev Controlled Gate=Gates 28-34 ,,,0.02032,0.00508,1.829,0,0, 1 
Elev Controlled Gate Ref=8.643,7.577,Sacramento      ,Amer to Sutt Sl ,73137.26,                
Elev Controlled Gate Stage Diff=,,                ,                ,        ,                ,                ,                ,        ,                
Elev Controlled Gate=Gates 35-41 ,,,0.02032,0.00508,1.829,0,0, 1 
Elev Controlled Gate Ref=8.709,7.591,Sacramento      ,Amer to Sutt Sl ,73137.26,                
Elev Controlled Gate Stage Diff=,,                ,                ,        ,                ,                ,                ,        ,                
Elev Controlled Gate=Gates 42-48 ,,,0.02032,0.00508,1.829,0,0, 1 
Elev Controlled Gate Ref=8.839,7.62,Sacramento      ,Amer to Sutt Sl ,73137.26,                
Elev Controlled Gate Stage Diff=,,                ,                ,        ,                ,                ,                ,        ,                
Boundary Location=Elk Slough      ,To Sutter       ,15304.38,        ,                ,                ,                ,                
Interval=1YEAR
Flow Hydrograph= 2 
       1       1
DSS Path=
Use DSS=False
Use Fixed Start Time=False
Fixed Start Date/Time=,
Is Critical Boundary=False
Critical Boundary Flow=
Boundary Location=CalhounCut      ,AA              ,2400.371,        ,                ,                ,                ,                
Interval=1HOUR
Flow Hydrograph= 0 
DSS File=LT_BCs_daily_hourly_mean_flows_m_t_shift.dss
DSS Path=/CALHOUN CUT/CCH/FLOW MID DAY/01JAN1996/1DAY/ESTIMATED/
Use DSS=True
Use Fixed Start Time=False
Fixed Start Date/Time=,
Is Critical Boundary=False
Critical Boundary Flow=
Boundary Location=HassSlough      ,To Cache        ,4682.563,        ,                ,                ,                ,                
Interval=1YEAR
Flow Hydrograph= 2 
       1       1
DSS Path=
Use DSS=False
Use Fixed Start Time=False
Fixed Start Date/Time=,
Is Critical Boundary=False
Critical Boundary Flow=
Boundary Location=HassSlough      ,To Cache        ,3475.33*,        ,                ,                ,                ,                
Interval=1DAY
Lateral Inflow Hydrograph= 0 
DSS File=LT_BCs_daily_hourly_mean_flows_m_t_shift.dss
DSS Path=/HAAS SLOUGH/HAAS/FLOW MID DAY/01JAN1996/1DAY/ESTIMATED/
Use DSS=True
Use Fixed Start Time=False
Fixed Start Date/Time=,
Is Critical Boundary=False
Critical Boundary Flow=
Boundary Location=American        ,A               ,22.195  ,        ,                ,                ,                ,                
Interval=1HOUR
Flow Hydrograph= 0 
DSS File=LT_BCs_daily_hourly_mean_flows_m_t_shift.dss
DSS Path=/AMERICAN R/FAIR OAKS CA/FLOW MID DAY/01JAN2009/1DAY/USGS/
Use DSS=True
Use Fixed Start Time=False
Fixed Start Date/Time=,
Is Critical Boundary=False
Critical Boundary Flow=
Boundary Location=DeltaCross      ,DCC             ,1071.35 ,        ,                ,                ,                ,                
Interval=1YEAR
Flow Hydrograph= 2 
       0       0
DSS Path=
Use DSS=False
Use Fixed Start Time=False
Fixed Start Date/Time=,
Is Critical Boundary=False
Critical Boundary Flow=
Boundary Location=Georgianna      ,Georg to Sac    ,1718.89 ,        ,                ,                ,                ,                
Interval=15MIN
Flow Hydrograph= 7105 
       1   -6.74  -14.49  -22.23  -29.97  -37.72  -45.46   -53.2  -60.95  -68.69
  -76.43  -84.18  -91.92  -99.66 -107.41 -115.15 -122.89 -130.64 -138.38 -146.12
 -153.87 -161.61 -169.35  -177.1 -184.84 -184.85 -184.85 -184.86 -184.86 -184.87
 -184.87 -184.88 -184.88 -184.89 -184.89  -184.9  -184.9 -184.91 -184.91 -184.92
 -184.92 -184.93 -184.93 -184.94 -184.94 -184.95 -184.96 -184.96 -184.97 -184.97
 -184.98 -184.98 -184.99 -184.99    -185    -185 -185.01 -185.01 -185.02 -185.02
 -185.03 -185.03 -185.04 -185.04 -185.05 -185.05 -185.06 -185.06 -185.07 -185.07
 -185.08 -185.08 -185.09 -185.09  -185.1  -185.1 -185.11 -185.11 -185.12 -185.13
 -185.13 -185.14 -185.14 -185.15 -185.15 -185.16 -185.16 -185.17 -185.17 -185.18
 -185.18 -185.19 -185.19  -185.2  -185.2 -185.21 -185.21 -185.22 -185.22 -185.23
 -185.23 -185.24 -185.24 -185.25 -185.25 -185.26 -185.26 -185.27 -185.27 -185.28
 -185.29 -185.29  -185.3  -185.3 -185.31 -185.31 -185.32 -185.32 -185.33 -185.33
 -185.34 -185.34 -185.35 -185.35 -185.36 -185.36 -185.37 -185.37 -185.38 -185.38
 -185.39 -185.39  -185.4  -185.4 -185.41 -185.41 -185.42 -185.42 -185.43 -185.43
 -185.44 -185.44 -185.45 -185.46 -185.46 -185.47 -185.47 -185.48 -185.48 -185.49
 -185.49  -185.5  -185.5 -185.51 -185.51 -185.52 -185.52 -185.53 -185.53 -185.54
 -185.54 -185.55 -185.55 -185.56 -185.56 -185.57 -185.57 -185.58 -185.58 -185.59
 -185.59  -185.6  -185.6 -185.61 -185.62 -185.62 -185.63 -185.63 -185.64 -185.64
 -185.65 -185.65 -185.66 -185.66 -185.67 -185.67 -185.68 -185.68 -185.69 -185.69
  -185.7  -185.7 -185.71 -185.71 -185.72 -185.72 -185.73 -185.73 -185.74 -185.74
 -185.75 -185.75 -185.76 -185.76 -185.77 -185.77 -185.78 -185.79 -185.79  -185.8
  -185.8 -185.81 -185.81 -185.82 -185.82 -185.83 -185.83 -185.84 -185.84 -185.85
 -185.85 -185.86 -185.86 -185.87 -185.87 -185.88 -185.88 -185.89 -185.89  -185.9
  -185.9 -185.91 -185.91 -185.92 -185.92 -185.93 -185.93 -185.94 -185.94 -185.95
 -185.96 -185.96 -185.97 -185.97 -185.98 -185.98 -185.99 -185.99    -186    -186
 -186.01 -186.01 -186.02 -186.02 -186.03 -186.03 -186.04 -186.04 -186.05 -186.05
 -186.06 -186.06 -186.07 -186.07 -186.08 -186.08 -186.09 -186.09  -186.1  -186.1
 -186.11 -186.12 -186.12 -186.13 -186.13 -186.14 -186.14 -186.15 -186.15 -186.16
 -186.16 -186.17 -186.17 -186.18 -186.18 -186.19 -186.19  -186.2  -186.2 -186.21
 -186.21 -186.22 -186.22 -186.23 -186.23 -186.24 -186.24 -186.25 -186.25 -186.26
 -186.26 -186.27 -186.27 -186.28 -186.29 -186.29  -186.3  -186.3 -186.31 -186.31
 -186.32 -186.32 -186.33 -186.33 -186.34 -186.34 -186.35 -186.35 -186.36 -186.36
 -186.37 -186.37 -186.38 -186.38 -186.39 -186.39  -186.4  -186.4 -186.41 -186.41
 -186.42 -186.42 -186.43 -186.43 -186.44 -186.45 -186.45 -186.46 -186.46 -186.47
 -186.47 -186.48 -186.48 -186.49 -186.49  -186.5  -186.5 -186.51 -186.51 -186.52
 -186.52 -186.53 -186.53 -186.54 -186.54 -186.55 -186.55 -186.56 -186.56 -186.57
 -186.57 -186.58 -186.58 -186.59 -186.59  -186.6  -186.6 -186.61 -186.62 -186.62
 -186.63 -186.63 -186.64 -186.64 -186.65 -186.65 -186.66 -186.66 -186.67 -186.67
 -186.68 -186.68 -186.69 -186.69  -186.7  -186.7 -186.71 -186.71 -186.72 -186.72
 -186.73 -186.73 -186.74 -186.74 -186.75 -186.75 -186.76 -186.76 -186.77 -186.78
 -186.78 -186.79 -186.79  -186.8  -186.8 -186.81 -186.81 -186.82 -186.82 -186.83
 -186.83 -186.84 -186.84 -186.85 -186.85 -186.86 -186.86 -186.87 -186.87 -186.88
 -186.88 -186.89 -186.89  -186.9  -186.9 -186.91 -186.91 -186.92 -186.92 -186.93
 -186.93 -186.94 -186.95 -186.95 -186.96 -186.96 -186.97 -186.97 -186.98 -186.98
 -186.99 -186.99    -187    -187 -187.01 -187.01 -187.02 -187.02 -187.03 -187.03
 -187.04 -187.04 -187.05 -187.05 -187.06 -187.06 -187.07 -187.07 -187.08 -187.08
 -187.09 -187.09  -187.1 -187.11 -187.11 -187.12 -187.12 -187.13 -187.13 -187.14
 -187.14 -187.15 -187.15 -187.16 -187.16 -187.17 -187.17 -187.18 -187.18 -187.19
 -187.19  -187.2  -187.2 -187.21 -187.21 -187.22 -187.22 -187.23 -187.23 -187.24
 -187.24 -187.25 -187.25 -187.26 -187.26 -187.27 -187.28 -187.28 -187.29 -187.29
  -187.3  -187.3 -187.31 -187.31 -187.32 -187.32 -187.33 -187.33 -187.34 -187.34
 -187.35 -187.35 -187.36 -187.36 -187.37 -187.37 -187.38 -187.38 -187.39 -187.39
  -187.4  -187.4 -187.41 -187.41 -187.42 -187.42 -187.43 -187.43 -187.44 -187.45
 -187.45 -187.46 -187.46 -187.47 -187.47 -187.48 -187.48 -187.49 -187.49  -187.5
  -187.5 -187.51 -187.51 -187.52 -187.52 -187.53 -187.53 -187.54 -187.54 -187.55
 -187.55 -187.56 -187.56 -187.57 -187.57 -187.58 -187.58 -187.59 -187.59  -187.6
 -187.61 -187.61 -187.62 -187.62 -187.63 -187.63 -187.64 -187.64 -187.65 -187.65
 -187.66 -187.66 -187.67 -187.67 -187.68 -187.68 -187.69 -187.69  -187.7  -187.7
 -187.71 -187.71 -187.72 -187.72 -187.73 -187.73 -187.74 -187.74 -187.75 -187.75
 -187.76 -187.76 -187.77 -187.78 -187.78 -187.79 -187.79  -187.8  -187.8 -187.81
 -187.81 -187.82 -187.82 -187.83 -187.83 -187.84 -187.84 -187.85 -187.85 -187.86
 -187.86 -187.87 -187.87 -187.88 -187.88 -187.89 -187.89  -187.9  -187.9 -187.91
 -187.91 -187.92 -187.92 -187.93 -187.94 -187.94 -187.95 -187.95 -187.96 -187.96
 -187.97 -187.97 -187.98 -187.98 -187.99 -187.99    -188    -188 -188.01 -188.01
 -188.02 -188.02 -188.03 -188.03 -188.04 -188.04 -188.05 -188.05 -188.06 -188.06
 -188.07 -188.07 -188.08 -188.08 -188.09 -188.09  -188.1 -188.11 -188.11 -188.12
 -188.12 -188.13 -188.13 -188.14 -188.14 -188.15 -188.15 -188.16 -188.16 -188.17
 -188.17 -188.18 -188.18 -188.19 -188.19  -188.2  -188.2 -188.21 -188.21 -188.22
 -188.22 -188.23 -188.23 -188.24 -188.24 -188.25 -188.25 -188.26 -188.27 -188.27
 -188.28 -188.28 -188.29 -188.29  -188.3  -188.3 -188.31 -188.31 -188.32 -188.32
 -188.33 -188.33 -188.34 -188.34 -188.35 -188.35 -188.36 -188.36 -188.37 -188.37